*KEYWORD
$
$ File created by cubit version 17.1
$...>....1....>....2....>....3....>....4....>....5....>....6....>....7....>....8
*TITLE
$ cubit(D:/Fidesys/bulk_task/bulk_task.k): 04/11/2021: 02:17:03
*PART
Block 1
$    pid     sid     mid   eosid    hgid    grav  adpopt    tmid
       1       1     100       0       0       0       0     100
*SECTION_SOLID
       1
*MAT_ELASTIC
     100   7e-06  206800    0.29     0.0     0.0       0
*MAT_THERMAL_ISOTROPIC
     100     0.0     0.0     0.0     0.0     0.0
     500   0.045
*NODE
$    nid               x               y               z      tc      rc
    2523       -0.429991         1.28822       -0.741931       0       0
    2524       -0.250324        0.492748       -0.292824       0       0
    2525        0.345861        0.478251        -1.11462       0       0
    2526         0.43524         1.26175       -0.959243       0       0
    2467         1.24298         1.56685     7.10543e-15       0       0
    2527         1.08601        0.758629       -0.811976       0       0
    2528        0.454986         1.07622     0.000431493       0       0
    2529       -0.161705         1.20103        -1.60497       0       0
    2530        0.960992        0.939217        -1.64352       0       0
    2407       -0.448032         1.94917        -1.05263       0       0
    2451        0.441054         1.95076        -1.57895       0       0
    2531        0.975744       -0.517091         1.76218       0       0
    2532        0.162703        0.290261          1.1585       0       0
    2533         1.16303        0.160512         1.46119       0       0
    2534        0.582325       -0.377505        0.763665       0       0
    2536        0.169027        -1.06424      -0.0722714       0       0
    2535       -0.848558       -0.504729        0.823782       0       0
    2537       -0.171386        0.141254        0.365728       0       0
    2538       -0.305907       -0.199751         1.60291       0       0
    2466         1.24298        -1.56685         1.05263       0       0
$ ... 466 like lines cut
$
$...>....1....>....2....>....3....>....4....>....5....>....6....>....7....>....8
$    eid     pid      n1      n2      n3      n4      n5      n6      n7      n8
*ELEMENT_SOLID
       1       1    2523    2524    2525    2526    2526    2526    2526    2526
       2       1    2467    2526    2527    2528    2528    2528    2528    2528
       3       1    2525    2529    2526    2530    2530    2530    2530    2530
       4       1    2407    2451    2526    2529    2529    2529    2529    2529
       5       1    2407    2526    2523    2529    2529    2529    2529    2529
       6       1    2531    2532    2533    2534    2534    2534    2534    2534
       7       1    2534    2536    2535    2537    2537    2537    2537    2537
       8       1    2532    2535    2534    2538    2538    2538    2538    2538
       9       1    2531    2532    2534    2538    2538    2538    2538    2538
      10       1    2466    2531    2534    2539    2539    2539    2539    2539
      11       1    2356    2410    2423    2540    2540    2540    2540    2540
      12       1    2541    2542    2543    2544    2544    2544    2544    2544
      13       1    2542    2545    2544    2546    2546    2546    2546    2546
      14       1    2544    2546    2547    2548    2548    2548    2548    2548
      15       1    2544    2550    2549    2551    2551    2551    2551    2551
      16       1    2552    2553    2554    2555    2555    2555    2555    2555
      17       1    2350    2555    2556    2557    2557    2557    2557    2557
      18       1    2349    2552    2555    2558    2558    2558    2558    2558
      19       1    2552    2555    2554    2556    2556    2556    2556    2556
      20       1    2323    2349    2552    2555    2555    2555    2555    2555
$ ... 1932 like lines cut
*BOUNDARY_SPC_SET
         1         0         1         1         1         0         0         0
*SET_NODE_LIST
         1
      2258      2259      2260      2261      2262      2247      2263      2264
      2265      2266      2267      2246      2518      2519      2520      2521
      2522
*LOAD_NODE_SET
         2         2         1       1.0
*DEFINE_CURVE
         1
       0.0       -10
*LOAD_NODE_SET
         2         3         2       1.0
*DEFINE_CURVE
         2
       0.0        10
*SET_NODE_LIST
         2
      2248      2249      2250      2251      2252      2245      2253      2254
      2255      2256      2257      2244      2513      2514      2515      2516
      2517
*END
