*KEYWORD
$
$ File created by cubit version 17.1
$...>....1....>....2....>....3....>....4....>....5....>....6....>....7....>....8
*TITLE
$ cubit(D:/bulk_test/111.k): 03/29/2021: 02:18:54
*PART
Block 1
$    pid     sid     mid   eosid    hgid    grav  adpopt    tmid
       1       1     100       0       0       0       0     100
*SECTION_SOLID
       1
*MAT_ELASTIC
     100   7e-06  206800    0.29     0.0     0.0       0
*MAT_THERMAL_ISOTROPIC
     100     0.0     0.0     0.0     0.0     0.0
     500   0.045
*NODE
$    nid               x               y               z      tc      rc
    4303        -1.28571               1               1       0       0
    4332       -0.877298       0.0423559               1       0       0
    4355        -1.32972        0.297934       -0.037228       0       0
    4356       -0.433135        0.405702        0.388497       0       0
    4333     -0.00179687       0.0427199               1       0       0
    4357        0.436569      0.00163946      -0.0434665       0       0
    4358     -0.00126388       -0.477532        0.487819       0       0
    4301        0.428571               1               1       0       0
    4352      0.00179687               1      -0.0427199       0       0
    4302       -0.428571               1               1       0       0
    4353       -0.872928               1      -0.0427143       0       0
    4359       -0.436329       0.0530325      -0.0939776       0       0
    4309        0.428571              -1               1       0       0
    4342    -0.000805475              -1       -0.042494       0       0
    4360        0.869968       -0.477333        0.487537       0       0
    4335         1.81953       0.0369204               1       0       0
    4334        0.872928       0.0427143               1       0       0
    4361         1.33884        0.127336       -0.144758       0       0
    4345         1.81956              -1      -0.0369208       0       0
    4344        0.873113              -1      -0.0427208       0       0
$ ... 63 like lines cut
$
$...>....1....>....2....>....3....>....4....>....5....>....6....>....7....>....8
$    eid     pid      n1      n2      n3      n4      n5      n6      n7      n8
*ELEMENT_SOLID
       1       1    4303    4332    4355    4356    4356    4356    4356    4356
       2       1    4333    4356    4357    4358    4358    4358    4358    4358
       3       1    4301    4356    4352    4357    4357    4357    4357    4357
       4       1    4303    4302    4332    4356    4356    4356    4356    4356
       5       1    4302    4301    4333    4356    4356    4356    4356    4356
       6       1    4352    4356    4353    4359    4359    4359    4359    4359
       7       1    4309    4342    4358    4360    4360    4360    4360    4360
       8       1    4335    4360    4334    4361    4361    4361    4361    4361
       9       1    4345    4344    4360    4361    4361    4361    4361    4361
      10       1    4334    4310    4309    4360    4360    4360    4360    4360
      11       1    4342    4357    4358    4360    4360    4360    4360    4360
      12       1    4334    4360    4357    4361    4361    4361    4361    4361
      13       1    4355    4362    4363    4364    4364    4364    4364    4364
      14       1    4336    4362    4355    4364    4364    4364    4364    4364
      15       1    4346    4348    4362    4364    4364    4364    4364    4364
      16       1    4336    4317    4362    4364    4364    4364    4364    4364
      17       1    4319    4354    4326    4364    4364    4364    4364    4364
      18       1    4326    4363    4348    4364    4364    4364    4364    4364
      19       1    4342    4358    4357    4359    4359    4359    4359    4359
      20       1    4340    4313    4345    4361    4361    4361    4361    4361
$ ... 208 like lines cut
*BOUNDARY_SPC_SET
         1         0         1         1         1         0         0         0
*SET_NODE_LIST
         1
      4326      4318      4325      4305      4291      4294      4293      4292
      4346      4347      4348      4349
*LOAD_NODE_SET
         2         2         1       1.0
*DEFINE_CURVE
         1
       0.0        -1
*SET_NODE_LIST
         2
      4287      4295      4288
*END
