*KEYWORD
$
$ File created by cubit version 17.1
$...>....1....>....2....>....3....>....4....>....5....>....6....>....7....>....8
*TITLE
$ cubit(D:/Fidesys/piramida_small/piramida_small.k): 04/14/2021: 00:19:00
*PART
Block 1
$    pid     sid     mid   eosid    hgid    grav  adpopt    tmid
       1       1     100       0       0       0       0     100
*SECTION_SOLID
       1
*MAT_ELASTIC
     100   7e-06  206800    0.29     0.0     0.0       0
*MAT_THERMAL_ISOTROPIC
     100     0.0     0.0     0.0     0.0     0.0
     500   0.045
*NODE
$    nid               x               y               z      tc      rc
    2362        0.214696       -0.214696              -5       0       0
    2352         1.59099         1.59099            -2.5       0       0
    2355     2.22045e-16         2.12132              -5       0       0
    2363      -0.0438348      -0.0118382        -2.49568       0       0
    2348         1.59099        -1.59099            -2.5       0       0
    2360        -1.06066         1.06066               0       0       0
    2351         1.06066         1.06066               0       0       0
    2354        -2.12132     2.22045e-16              -5       0       0
    2361        -1.59099         1.59099            -2.5       0       0
    2358        -1.59099        -1.59099            -2.5       0       0
    2353     1.11022e-16        -2.12132              -5       0       0
    2357        -1.06066        -1.06066     8.41885e-16       0       0
    2347         1.06066        -1.06066     8.41885e-16       0       0
    2345        -2.12132         2.12132              -5       0       0
    2346         0.53033        -0.53033             2.5       0       0
    2359        -0.53033         0.53033             2.5       0       0
    2341               0               0               5       0       0
    2350         0.53033         0.53033             2.5       0       0
    2349         2.12132    -2.22045e-16              -5       0       0
    2343         2.12132         2.12132              -5       0       0
    2356        -0.53033        -0.53033             2.5       0       0
    2344        -2.12132        -2.12132              -5       0       0
    2342         2.12132        -2.12132              -5       0       0
$
$...>....1....>....2....>....3....>....4....>....5....>....6....>....7....>....8
$    eid     pid      n1      n2      n3      n4      n5      n6      n7      n8
*ELEMENT_SOLID
       1       1    2362    2352    2355    2363    2363    2363    2363    2363
       2       1    2362    2348    2352    2363    2363    2363    2363    2363
       3       1    2360    2352    2351    2363    2363    2363    2363    2363
       4       1    2354    2361    2358    2363    2363    2363    2363    2363
       5       1    2355    2361    2354    2363    2363    2363    2363    2363
       6       1    2353    2354    2358    2363    2363    2363    2363    2363
       7       1    2353    2358    2348    2363    2363    2363    2363    2363
       8       1    2357    2358    2360    2363    2363    2363    2363    2363
       9       1    2357    2360    2347    2363    2363    2363    2363    2363
      10       1    2347    2360    2351    2363    2363    2363    2363    2363
      11       1    2357    2347    2358    2363    2363    2363    2363    2363
      12       1    2355    2345    2354    2361    2361    2361    2361    2361
      13       1    2346    2359    2341    2350    2350    2350    2350    2350
      14       1    2346    2360    2359    2351    2351    2351    2351    2351
      15       1    2362    2349    2355    2352    2352    2352    2352    2352
      16       1    2343    2355    2349    2352    2352    2352    2352    2352
      17       1    2362    2348    2349    2352    2352    2352    2352    2352
      18       1    2362    2355    2354    2363    2363    2363    2363    2363
      19       1    2353    2348    2362    2363    2363    2363    2363    2363
      20       1    2357    2359    2346    2360    2360    2360    2360    2360
$ ... 15 like lines cut
*BOUNDARY_SPC_SET
         1         0         1         1         1         0         0         0
*SET_NODE_LIST
         1
      2349      2353      2354      2355      2343      2342      2344      2345
      2362
*LOAD_NODE_SET
         2         3         1       1.0
*DEFINE_CURVE
         1
       0.0        10
*SET_NODE_LIST
         2
      2341
*END
