*KEYWORD
$
$ File created by cubit version 17.1
$...>....1....>....2....>....3....>....4....>....5....>....6....>....7....>....8
*TITLE
$ cubit(D:/Fidesys/plastinka_small/plastinka_small.k): 04/14/2021: 00:07:17
*PART
Block 1
$    pid     sid     mid   eosid    hgid    grav  adpopt    tmid
       1       1     100       0       0       0       0     100
*SECTION_SOLID
       1
*MAT_ELASTIC
     100   7e-06  206800    0.29     0.0     0.0       0
*MAT_THERMAL_ISOTROPIC
     100     0.0     0.0     0.0     0.0     0.0
     500   0.045
*NODE
$    nid               x               y               z      tc      rc
    5306         4.14222         4.69699            0.05       0       0
    5291         4.27375               5           -0.05       0       0
    5304         4.42776         4.77128            0.05       0       0
    5499         4.14027         4.68915           -0.05       0       0
    5303         4.65617         4.81885            0.05       0       0
    5501         4.65605         4.81582           -0.05       0       0
    5292         4.53331               5           -0.05       0       0
    5199        -4.87982               5            0.05       0       0
    5276         -4.8827               5           -0.05       0       0
    5277        -4.73148               5           -0.05       0       0
    5480        -4.84511          4.8525           -0.05       0       0
    5201              -5         4.73148            0.05       0       0
    5275              -5         4.87982           -0.05       0       0
    5274              -5         4.72937           -0.05       0       0
    5326         4.81889        -4.65615            0.05       0       0
    5443         4.84511         -4.8525           -0.05       0       0
    5362         4.65605        -4.81582            0.05       0       0
    5447         4.81588         -4.6562           -0.05       0       0
    5237         4.87982              -5            0.05       0       0
    5238          4.8827              -5           -0.05       0       0
$ ... 429 like lines cut
$
$...>....1....>....2....>....3....>....4....>....5....>....6....>....7....>....8
$    eid     pid      n1      n2      n3      n4      n5      n6      n7      n8
*ELEMENT_SOLID
       1       1    5306    5291    5304    5499    5499    5499    5499    5499
       2       1    5304    5303    5501    5292    5292    5292    5292    5292
       3       1    5199    5276    5277    5480    5480    5480    5480    5480
       4       1    5201    5275    5480    5274    5274    5274    5274    5274
       5       1    5326    5443    5362    5447    5447    5447    5447    5447
       6       1    5237    5238    5443    5573    5573    5573    5573    5573
       7       1    5162    5238    5237    5573    5573    5573    5573    5573
       8       1    5238    5161    5443    5573    5573    5573    5573    5573
       9       1    5329    5237    5236    5443    5443    5443    5443    5443
      10       1    5163    5161    5162    5573    5573    5573    5573    5573
      11       1    5332    5203    5330    5272    5272    5272    5272    5272
      12       1    5370    5544    5536    5551    5551    5551    5551    5551
      13       1    5382    5381    5526    5527    5527    5527    5527    5527
      14       1    5332    5271    5272    5481    5481    5481    5481    5481
      15       1    5332    5204    5203    5272    5272    5272    5272    5272
      16       1    5335    5206    5483    5485    5485    5485    5485    5485
      17       1    5207    5268    5269    5485    5485    5485    5485    5485
      18       1    5207    5268    5485    5574    5574    5574    5574    5574
      19       1    5335    5485    5488    5574    5574    5574    5574    5574
      20       1    5336    5488    5268    5574    5574    5574    5574    5574
$ ... 1115 like lines cut
*BOUNDARY_SPC_SET
         1         0         1         1         1         0         0         0
*SET_NODE_LIST
         1
      5162      5163      5164      5165      5166      5167      5168      5169
      5170      5171      5172      5173      5174      5175      5176      5177
      5178      5179      5180      5181      5182      5183      5184      5185
      5186      5187      5188      5189      5190      5191      5192      5193
      5194      5195      5196      5197      5198      5199      5200      5201
      5202      5203      5204      5205      5206      5207      5208      5209
      5210      5211      5212      5213      5214      5215      5216      5217
      5218      5219      5220      5221      5222      5223      5224      5225
      5226      5227      5228      5229      5230      5231      5232      5233
      5234      5235      5236      5237      5238      5239      5240      5241
      5242      5243      5244      5245      5246      5247      5248      5249
      5250      5251      5252      5253      5254      5255      5256      5143
      5144      5145      5146      5147      5148      5149      5150      5151
      5152      5153      5154      5155      5156      5157      5158      5159
      5160      5161      5276      5277      5278      5279      5280      5281
      5282      5283      5284      5285      5286      5287      5288      5289
      5290      5291      5292      5293      5294      5135      5138      5139
      5140      5141      5136      5137      5142      5295      5296      5297
      5298      5299      5300      5301      5302      5303      5304      5305
$ ... 16 like lines cut
*LOAD_NODE_SET
         2         3         1       1.0
*DEFINE_CURVE
         1
       0.0      -100
*SET_NODE_LIST
         2
      5162      5163      5164      5165      5166      5167      5168      5169
      5170      5171      5172      5173      5174      5175      5176      5177
      5178      5179      5180      5181      5182      5183      5184      5185
      5186      5187      5188      5189      5190      5191      5192      5193
      5194      5195      5196      5197      5198      5199      5200      5201
      5202      5203      5204      5205      5206      5207      5208      5209
      5210      5211      5212      5213      5214      5215      5216      5217
      5218      5219      5220      5221      5222      5223      5224      5225
      5226      5227      5228      5229      5230      5231      5232      5233
      5234      5235      5236      5237      5135      5138      5139      5140
      5295      5296      5297      5298      5299      5300      5301      5302
      5303      5304      5305      5306      5307      5308      5309      5310
      5311      5312      5313      5314      5315      5316      5317      5318
      5319      5320      5321      5322      5323      5324      5325      5326
      5327      5328      5329      5330      5331      5332      5333      5334
      5335      5336      5337      5338      5339      5340      5341      5342
      5343      5344      5345      5346      5347      5348      5349      5350
      5351      5352      5353      5354      5355      5356      5357      5358
      5359      5360      5361      5362      5363      5364      5365      5366
$ ... 9 like lines cut
*END
