*KEYWORD
$
$ File created by cubit version 17.1
$...>....1....>....2....>....3....>....4....>....5....>....6....>....7....>....8
*TITLE
$ cubit(D:/Fidesys/plastinka1/plastinka1.k): 04/13/2021: 23:04:38
*PART
Block 1
$    pid     sid     mid   eosid    hgid    grav  adpopt    tmid
       1       1     100       0       0       0       0     100
*SECTION_SOLID
       1
*MAT_ELASTIC
     100   7e-06  206800    0.29     0.0     0.0       0
*MAT_THERMAL_ISOTROPIC
     100     0.0     0.0     0.0     0.0     0.0
     500   0.045
*NODE
$    nid               x               y               z      tc      rc
     474        -4.03314         4.80611            0.05       0       0
     475        -4.23997          4.8058            0.05       0       0
     151        -4.13649               5            0.05       0       0
    5089        -4.13915         4.78829      0.00190817       0       0
    2368        0.098192        -2.06495            0.05       0       0
    4634      0.00444823        -2.26229           -0.05       0       0
    4657       -0.098192        -2.06495           -0.05       0       0
    4658        0.108559        -2.06498           -0.05       0       0
    2052        -2.65672        -1.85805            0.05       0       0
    4308        -2.85441        -1.76012           -0.05       0       0
    4408        -2.65722        -1.65728           -0.05       0       0
    4409        -2.65714        -1.86407           -0.05       0       0
    1978        -2.85404         -1.7554            0.05       0       0
    1977        -2.85401         -1.9622            0.05       0       0
    1369         3.83442        -1.44821            0.05       0       0
    1367         3.83441        -1.65504            0.05       0       0
    1425         3.63936        -1.55182            0.05       0       0
    3674         3.83444        -1.65425           -0.05       0       0
    3804         3.63927        -1.75741           -0.05       0       0
    1106         4.02917         1.55101            0.05       0       0
$ ... 5114 like lines cut
$
$...>....1....>....2....>....3....>....4....>....5....>....6....>....7....>....8
$    eid     pid      n1      n2      n3      n4      n5      n6      n7      n8
*ELEMENT_SOLID
       1       1     474     475     151    5089    5089    5089    5089    5089
       2       1    2368    4634    4657    4658    4658    4658    4658    4658
       3       1    2052    4308    4408    4409    4409    4409    4409    4409
       4       1    1978    2052    1977    4308    4308    4308    4308    4308
       5       1    1369    1367    1425    3674    3674    3674    3674    3674
       6       1    1367    1425    3674    3804    3804    3804    3804    3804
       7       1    1106    1086    1105    3492    3492    3492    3492    3492
       8       1    1086    3384    1105    3492    3492    3492    3492    3492
       9       1    1086    3166    3384    3383    3383    3383    3383    3383
      10       1    1386    1405    1406    3786    3786    3786    3786    3786
      11       1    1087    1105    3384    3519    3519    3519    3519    3519
      12       1    1105    3519    1387    3690    3690    3690    3690    3690
      13       1    1086    3383    3384    3492    3492    3492    3492    3492
      14       1    1225    3451    1284    3732    3732    3732    3732    3732
      15       1    1106    3494    3383    3492    3492    3492    3492    3492
      16       1    4294    4419    4293    5090    5090    5090    5090    5090
      17       1     694    2860    2894    2993    2993    2993    2993    2993
      18       1     484     694     691    2860    2860    2860    2860    2860
      19       1     675    2956     849    3254    3254    3254    3254    3254
      20       1     492     673     675    2899    2899    2899    2899    2899
$ ... 14900 like lines cut
*SET_NODE_LIST
         1
       303       304       305       306       307       308       309       310
       311       312       313       314       315       316       317       318
       319       320       321       322       323       324       325       326
       327       328       329       330       331       332       333       334
       335       336       337       338       339       340       341       342
       343       344       345       346       347       348       349       350
       351       156       157       158       159       160       161       162
       163       164       165       166       167       168       169       170
       171       172       173       174       175       176       177       178
       179       180       181       182       183       184       185       186
       187       188       189       190       191       192       193       194
       195       196       197       198       199       200       201       202
       203       204         9        10        11        12        13        14
        15        16        17        18        19        20        21        22
        23        24        25        26        27        28        29        30
        31        32        33        34        35        36        37        38
        39        40        41        42        43        44        45        46
        47        48        49        50        51        52        53        54
        55        56        57        58        59        60        61        62
$ ... 7 like lines cut
*LOAD_NODE_SET
         2         3         1       1.0
*DEFINE_CURVE
         1
       0.0      -100
*SET_NODE_LIST
         2
        58        59        60        61        62        63        64        65
        66        67        68        69        70        71        72        73
        74        75        76        77        78        79        80        81
        82        83        84        85        86        87        88        89
        90        91        92        93        94        95        96        97
        98        99       100       101       102       103       104       105
       106       107       108       109       110       111       112       113
       114       115       116       117       118       119       120       121
       122       123       124       125       126       127       128       129
       130       131       132       133       134       135       136       137
       138       139       140       141       142       143       144       145
       146       147       148       149       150       151       152       153
       154       155       156       157       158       159       160       161
       162       163       164       165       166       167       168       169
       170       171       172       173       174       175       176       177
       178       179       180       181       182       183       184       185
       186       187       188       189       190       191       192       193
       194       195       196       197       198       199       200       201
       202       203       204       205       206       207       208       209
$ ... 299 like lines cut
*BOUNDARY_SPC_SET
         3         0         1         1         1         0         0         0
*SET_NODE_LIST
         3
       254       255       256       257       258       259       260       261
       262       263       264       265       266       267       268       269
       270       271       272       273       274       275       276       277
       278       279       280       281       282       283       284       285
       286       287       288       289       290       291       292       293
       294       295       296       297       298       299       300       301
       302       205       206       207       208       209       210       211
       212       213       214       215       216       217       218       219
       220       221       222       223       224       225       226       227
       228       229       230       231       232       233       234       235
       236       237       238       239       240       241       242       243
       244       245       246       247       248       249       250       251
       252       253         9        10        11        12        13        14
        15        16        17        18        19        20        21        22
        23        24        25        26        27        28        29        30
        31        32        33        34        35        36        37        38
        39        40        41        42        43        44        45        46
        47        48        49        50        51        52        53        54
        55        56        57        58        59        60        61        62
$ ... 31 like lines cut
*END
