*KEYWORD
$
$ File created by cubit version 17.1
$...>....1....>....2....>....3....>....4....>....5....>....6....>....7....>....8
*TITLE
$ cubit(D:/Fidesys/9task_fem/9task_fem.k): 12/02/2021: 22:52:41
*PART
Block 1
$    pid     sid     mid   eosid    hgid    grav  adpopt    tmid
       1       1     100       0       0       0       0     100
*SECTION_SHELL
       1
$     t1      t2      t3      t4
       1       1       1       1

*MAT_ELASTIC
     100   7e-06  206800    0.29     0.0     0.0       0
*MAT_THERMAL_ISOTROPIC
     100     0.0     0.0     0.0     0.0     0.0
     500   0.045
*NODE
$    nid               x               y               z      tc      rc
       9              -4               3               0       0       0
      51        -3.56949         3.24523               0       0       0
       8              -4             3.5               0       0       0
      11              -4               2               0       0       0
      52        -3.55974            2.25               0       0       0
      10              -4             2.5               0       0       0
      53        -3.55974            1.25               0       0       0
      57        -3.55974            1.75               0       0       0
      12              -4             1.5               0       0       0
      54        -3.55974            0.75               0       0       0
      13              -4               1               0       0       0
      55        -3.53997        0.237253               0       0       0
      14              -4             0.5               0       0       0
      56        -3.55968       -0.241918               0       0       0
      15              -4     1.77636e-15               0       0       0
       2              -4              -1               0       0       0
      17            -3.5              -1               0       0       0
      16              -4            -0.5               0       0       0
      58        -3.55974            2.75               0       0       0
      18              -3              -1               0       0       0
$ ... 127 like lines cut
$
$...>....1....>....2....>....3....>....4....>....5....>....6....>....7....>....8
$    eid     pid      n1      n2      n3      n4      n5      n6      n7      n8
*ELEMENT_SHELL
       1       1       9      51       8       8
       2       1      11      52      10      10
       3       1      53      57      12      12
       4       1      54      53      13      13
       5       1      55      54      14      14
       6       1      56      55      15      15
       7       1       2      17      16      16
       8       1      57      11      12      12
       9       1      58       9      10      10
      10       1      18      59      17      17
      11       1      60       7       8       8
      12       1      61      59      18      18
      13       1      62       6       7       7
      14       1      50       1       6       6
      15       1      64      82      21      21
      16       1      65      64      22      22
      17       1      66      65      23      23
      18       1      26      67      25      25
      19       1      68      67      26      26
      20       1      29      69      28      28
$ ... 222 like lines cut
*LOAD_SEGMENT
         1       1.0       0.0         4        35        35        35       0.0
*DEFINE_CURVE
         1
       0.0      7000
*LOAD_SEGMENT
         2       1.0       0.0        35        36        36        36       0.0
*DEFINE_CURVE
         2
       0.0      7000
*LOAD_SEGMENT
         3       1.0       0.0        36        37        37        37       0.0
*DEFINE_CURVE
         3
       0.0      7000
*LOAD_SEGMENT
         4       1.0       0.0        37         5         5         5       0.0
*DEFINE_CURVE
         4
       0.0      7000
*BOUNDARY_SPC_SET
         1         0         1         1         0         0         0         0
*SET_NODE_LIST
         1
         1         6         7         8         9        10        11        12
        13        14        15        16         2
*END
