*KEYWORD
$
$ File created by cubit version 17.1
$...>....1....>....2....>....3....>....4....>....5....>....6....>....7....>....8
*TITLE
$ cubit(D:/PRAK/9task_6/9task_6.k): 12/17/2021: 02:02:15
*PART
Block 1
$    pid     sid     mid   eosid    hgid    grav  adpopt    tmid
       1       1     100       0       0       0       0     100
*SECTION_SHELL
       1
$     t1      t2      t3      t4
       1       1       1       1

*MAT_ELASTIC
     100   7e-06  206800    0.29     0.0     0.0       0
*MAT_THERMAL_ISOTROPIC
     100     0.0     0.0     0.0     0.0     0.0
     500   0.045
*NODE
$    nid               x               y               z      tc      rc
     363         4.33333              -2               0       0       0
     433         4.49442        -2.28991               0       0       0
     362         4.66667              -2               0       0       0
     365         3.66667              -2               0       0       0
     434         3.83333        -2.28868               0       0       0
     364               4              -2               0       0       0
     358               3              -2               0       0       0
     435         3.16667        -2.28868               0       0       0
     366         3.33333              -2               0       0       0
     436        -2.74509         1.48862               0       0       0
     367        -2.72727         1.81818               0       0       0
     388              -3         1.66667               0       0       0
     389              -3         1.33333               0       0       0
     437        -2.71795         1.16209               0       0       0
     438        -2.71132        0.833333               0       0       0
     390              -3               1               0       0       0
     393              -3     4.44089e-16               0       0       0
     439        -2.71132        0.166667               0       0       0
     392              -3        0.333333               0       0       0
     440        -2.71132       -0.166667               0       0       0
$ ... 304 like lines cut
$
$...>....1....>....2....>....3....>....4....>....5....>....6....>....7....>....8
$    eid     pid      n1      n2      n3      n4      n5      n6      n7      n8
*ELEMENT_SHELL
     501       1     363     433     362     362
     502       1     365     434     364     364
     503       1     358     435     366     366
     504       1     436     367     388     388
     505       1     389     436     388     388
     506       1     437     436     389     389
     507       1     438     437     390     390
     508       1     393     439     392     392
     509       1     440     439     393     393
     510       1     441     459     395     395
     511       1     442     462     397     397
     512       1     402     443     401     401
     513       1     360     405     404     404
     514       1     419     444     418     418
     515       1     388     367     359     359
     516       1     445     372     371     371
     517       1     446     375     374     374
     518       1     447     369     368     368
     519       1     448     377     376     376
     520       1     449     370     369     369
$ ... 550 like lines cut
*LOAD_SEGMENT
         1       1.0       0.0       357       362       362       362       0.0
*DEFINE_CURVE
         1
       0.0      7000
*LOAD_SEGMENT
         2       1.0       0.0       362       363       363       363       0.0
*DEFINE_CURVE
         2
       0.0      7000
*LOAD_SEGMENT
         3       1.0       0.0       363       364       364       364       0.0
*DEFINE_CURVE
         3
       0.0      7000
*LOAD_SEGMENT
         4       1.0       0.0       364       365       365       365       0.0
*DEFINE_CURVE
         4
       0.0      7000
*LOAD_SEGMENT
         5       1.0       0.0       365       366       366       366       0.0
*DEFINE_CURVE
         5
       0.0      7000
*LOAD_SEGMENT
         6       1.0       0.0       366       358       358       358       0.0
*DEFINE_CURVE
         6
       0.0      7000
*BOUNDARY_SPC_SET
         1         0         1         1         0         0         0         0
*SET_NODE_LIST
         1
       359       388       389       390       391       392       393       394
       395       396       397       398       399       400       401       402
       403       404       360
*BOUNDARY_SPC_SET
         2         0         1         1         0         0         0         0
*SET_NODE_LIST
         2
       359       388       389       390       391       392       393       394
       395       396       397       398       399       400       401       402
       403       404       360
*END
