*KEYWORD
$
$ File created by cubit version 17.1
$...>....1....>....2....>....3....>....4....>....5....>....6....>....7....>....8
*TITLE
$ cubit(D:/PRAK/9task_5/9task_5.k): 12/17/2021: 02:01:21
*PART
Block 1
$    pid     sid     mid   eosid    hgid    grav  adpopt    tmid
       1       1     100       0       0       0       0     100
*SECTION_SHELL
       1
$     t1      t2      t3      t4
       1       1       1       1

*MAT_ELASTIC
     100   7e-06  206800    0.29     0.0     0.0       0
*MAT_THERMAL_ISOTROPIC
     100     0.0     0.0     0.0     0.0     0.0
     500   0.045
*NODE
$    nid               x               y               z      tc      rc
     211               3              -2               0       0       0
     260         3.24424        -2.51589               0       0       0
     217             3.5              -2               0       0       0
     261        -2.56276         1.24616               0       0       0
     218        -2.57143         1.71429               0       0       0
     231              -3             1.5               0       0       0
     262        -2.56892        0.745756               0       0       0
     232              -3               1               0       0       0
     263        -2.56947         0.24497               0       0       0
     233              -3             0.5               0       0       0
     264        -2.55974           -0.75               0       0       0
     274        -2.55974           -0.25               0       0       0
     235              -3            -0.5               0       0       0
     238              -3              -2               0       0       0
     265        -2.55974           -1.75               0       0       0
     237              -3            -1.5               0       0       0
     250             1.5              -4               0       0       0
     266            1.25        -3.55974               0       0       0
     249               1              -4               0       0       0
     212              -3               2               0       0       0
$ ... 127 like lines cut
$
$...>....1....>....2....>....3....>....4....>....5....>....6....>....7....>....8
$    eid     pid      n1      n2      n3      n4      n5      n6      n7      n8
*ELEMENT_SHELL
     259       1     211     260     217     217
     260       1     261     218     231     231
     261       1     262     261     232     232
     262       1     263     262     233     233
     263       1     264     274     235     235
     264       1     238     265     237     237
     265       1     250     266     249     249
     266       1     231     218     212     212
     267       1     267     222     221     221
     268       1     268     224     223     223
     269       1     261     219     218     218
     270       1     269     226     225     225
     271       1     270     220     219     219
     272       1     271     228     227     227
     273       1     272     221     220     220
     274       1     273     229     228     228
     275       1     274     263     234     234
     276       1     275     211     230     230
     277       1     276     223     222     222
     278       1     277     264     236     236
$ ... 222 like lines cut
*LOAD_SEGMENT
         1       1.0       0.0       210       215       215       215       0.0
*DEFINE_CURVE
         1
       0.0      7000
*LOAD_SEGMENT
         2       1.0       0.0       215       216       216       216       0.0
*DEFINE_CURVE
         2
       0.0      7000
*LOAD_SEGMENT
         3       1.0       0.0       216       217       217       217       0.0
*DEFINE_CURVE
         3
       0.0      7000
*LOAD_SEGMENT
         4       1.0       0.0       217       211       211       211       0.0
*DEFINE_CURVE
         4
       0.0      7000
*BOUNDARY_SPC_SET
         1         0         1         1         0         0         0         0
*SET_NODE_LIST
         1
       212       231       232       233       234       235       236       237
       238       239       240       241       213
*BOUNDARY_SPC_SET
         2         0         1         1         0         0         0         0
*SET_NODE_LIST
         2
       212       231       232       233       234       235       236       237
       238       239       240       241       213
*END
