*KEYWORD
$
$ File created by cubit version 17.1
$...>....1....>....2....>....3....>....4....>....5....>....6....>....7....>....8
*TITLE
$ cubit(D:/PRAK/9task_3/9task_3.k): 12/17/2021: 02:00:16
*PART
Block 1
$    pid     sid     mid   eosid    hgid    grav  adpopt    tmid
       1       1     100       0       0       0       0     100
*SECTION_SHELL
       1
$     t1      t2      t3      t4
       1       1       1       1

*MAT_ELASTIC
     100   7e-06  206800    0.29     0.0     0.0       0
*MAT_THERMAL_ISOTROPIC
     100     0.0     0.0     0.0     0.0     0.0
     500   0.045
*NODE
$    nid               x               y               z      tc      rc
     176        -2.01393             0.2               0       0       0
     160              -2         1.33333               0       0       0
     165              -3             0.8               0       0       0
     156              -3               2               0       0       0
     177        -1.04675       -0.486786               0       0       0
     162     4.44089e-16    -4.44089e-16               0       0       0
     161              -1        0.666667               0       0       0
     178         0.90989        -1.89767               0       0       0
     164               2        -1.33333               0       0       0
     163               1       -0.666667               0       0       0
     179         2.07449        -2.68537               0       0       0
     155               3              -2               0       0       0
     180        -2.01393              -1               0       0       0
     166              -3            -0.4               0       0       0
     181      -0.0323197        -1.09364               0       0       0
     182         3.48196        -3.01142               0       0       0
     159               4              -2               0       0       0
     157              -3              -4               0       0       0
     169        -1.85714              -4               0       0       0
     168              -3            -2.8               0       0       0
$ ... 15 like lines cut
$
$...>....1....>....2....>....3....>....4....>....5....>....6....>....7....>....8
$    eid     pid      n1      n2      n3      n4      n5      n6      n7      n8
*ELEMENT_SHELL
     188       1     176     160     165     165
     189       1     165     160     156     156
     190       1     177     162     161     161
     191       1     178     164     163     163
     192       1     176     161     160     160
     193       1     179     155     164     164
     194       1     180     176     166     166
     195       1     181     163     162     162
     196       1     182     159     155     155
     197       1     157     169     168     168
     198       1     175     154     159     159
     199       1     183     167     168     168
     200       1     184     168     169     169
     201       1     185     184     170     170
     202       1     186     185     171     171
     203       1     173     179     172     172
     204       1     174     182     173     173
     205       1     175     182     174     174
     206       1     175     174     158     158
     207       1     176     165     166     166
$ ... 26 like lines cut
*LOAD_SEGMENT
         1       1.0       0.0       154       159       159       159       0.0
*DEFINE_CURVE
         1
       0.0      7000
*LOAD_SEGMENT
         2       1.0       0.0       159       155       155       155       0.0
*DEFINE_CURVE
         2
       0.0      7000
*BOUNDARY_SPC_SET
         1         0         1         1         0         0         0         0
*SET_NODE_LIST
         1
       156       165       166       167       168       157
*BOUNDARY_SPC_SET
         2         0         1         1         0         0         0         0
*SET_NODE_LIST
         2
       156       165       166       167       168       157
*END
