*KEYWORD
$
$ File created by cubit version 17.1
$...>....1....>....2....>....3....>....4....>....5....>....6....>....7....>....8
*TITLE
$ cubit(D:/PRAK/9task_4/9task_4.k): 12/17/2021: 01:59:49
*PART
Block 1
$    pid     sid     mid   eosid    hgid    grav  adpopt    tmid
       1       1     100       0       0       0       0     100
*SECTION_SHELL
       1
$     t1      t2      t3      t4
       1       1       1       1

*MAT_ELASTIC
     100   7e-06  206800    0.29     0.0     0.0       0
*MAT_THERMAL_ISOTROPIC
     100     0.0     0.0     0.0     0.0     0.0
     500   0.045
*NODE
$    nid               x               y               z      tc      rc
      91         3.66667              -2               0       0       0
     118         4.16438        -2.72019               0       0       0
      90         4.33333              -2               0       0       0
     119        -2.33136        0.859296               0       0       0
      92        -2.33333         1.55556               0       0       0
     100              -3            1.25               0       0       0
     120         -2.3366        0.122251               0       0       0
     101              -3             0.5               0       0       0
     104              -3           -1.75               0       0       0
     121        -2.32969          -1.375               0       0       0
     103              -3              -1               0       0       0
      88              -3              -4               0       0       0
     107            -2.2              -4               0       0       0
     106              -3           -3.25               0       0       0
      87              -3               2               0       0       0
     122        -1.03849       -0.113287               0       0       0
      95       -0.333333        0.222222               0       0       0
      94              -1        0.666667               0       0       0
     123        0.294846        -1.00218               0       0       0
      97               1       -0.666667               0       0       0
$ ... 49 like lines cut
$
$...>....1....>....2....>....3....>....4....>....5....>....6....>....7....>....8
$    eid     pid      n1      n2      n3      n4      n5      n6      n7      n8
*ELEMENT_SHELL
      85       1      91     118      90      90
      86       1     119      92     100     100
      87       1     120     119     101     101
      88       1     104     121     103     103
      89       1      88     107     106     106
      90       1     100      92      87      87
      91       1     122      95      94      94
      92       1     123      97      96      96
      93       1     119      93      92      92
      94       1     124      98      97      97
      95       1     125      94      93      93
      96       1     126      86      99      99
      97       1     127     120     102     102
      98       1     128      96      95      95
      99       1     129     146     133     133
     100       1     106     129     105     105
     101       1     130      91      86      86
     102       1     131      99      98      98
     103       1     117      85      90      90
     104       1     107     132     129     129
$ ... 83 like lines cut
*LOAD_SEGMENT
         1       1.0       0.0        85        90        90        90       0.0
*DEFINE_CURVE
         1
       0.0      7000
*LOAD_SEGMENT
         2       1.0       0.0        90        91        91        91       0.0
*DEFINE_CURVE
         2
       0.0      7000
*LOAD_SEGMENT
         3       1.0       0.0        91        86        86        86       0.0
*DEFINE_CURVE
         3
       0.0      7000
*BOUNDARY_SPC_SET
         1         0         1         1         0         0         0         0
*SET_NODE_LIST
         1
        87       100       101       102       103       104       105       106
        88
*BOUNDARY_SPC_SET
         2         0         1         1         0         0         0         0
*SET_NODE_LIST
         2
        87       100       101       102       103       104       105       106
        88
*END
