*KEYWORD
$
$ File created by cubit version 17.1
$...>....1....>....2....>....3....>....4....>....5....>....6....>....7....>....8
*TITLE
$ cubit(D:/Fidesys/Kirsh_grisha/Kirsh_grisha.k): 11/03/2021: 00:08:43
*PART
Block 1
$    pid     sid     mid   eosid    hgid    grav  adpopt    tmid
       1       1     100       0       0       0       0     100
*SECTION_SHELL
       1
$     t1      t2      t3      t4
       1       1       1       1

*MAT_ELASTIC
     100   7e-06  206800    0.29     0.0     0.0       0
*MAT_THERMAL_ISOTROPIC
     100     0.0     0.0     0.0     0.0     0.0
     500   0.045
*NODE
$    nid               x               y               z      tc      rc
     305        0.535827       -0.844328               0       0       0
     366        0.795889       -0.961992               0       0       0
     304        0.728969       -0.684547               0       0       0
     319       -0.187381        0.982287               0       0       0
     367       -0.385781         1.18744               0       0       0
     318       -0.425779        0.904827               0       0       0
     368       -0.078385         1.24605               0       0       0
     369        0.233922         1.22641               0       0       0
     320       0.0627905        0.998027               0       0       0
     370        0.531577         1.12974               0       0       0
     321        0.309017        0.951057               0       0       0
     371        0.795889        0.961992               0       0       0
     322        0.535827        0.844328               0       0       0
     372          1.2387        0.156536               0       0       0
     325        0.968583         0.24869               0       0       0
     301               1               0               0       0       0
     373       -0.669021         1.05418               0       0       0
     317       -0.637424        0.770513               0       0       0
     357               4               5               0       0       0
     336               5               4               0       0       0
$ ... 203 like lines cut
$
$...>....1....>....2....>....3....>....4....>....5....>....6....>....7....>....8
$    eid     pid      n1      n2      n3      n4      n5      n6      n7      n8
*ELEMENT_SHELL
       1       1     305     366     304     304
       2       1     319     367     318     318
       3       1     368     367     319     319
       4       1     369     368     320     320
       5       1     370     369     321     321
       6       1     371     370     322     322
       7       1     372     325     301     301
       8       1     373     317     318     318
       9       1     357     336     327     327
      10       1     358     374     357     357
      11       1     375     374     358     358
      12       1     376     316     317     317
      13       1     377     375     359     359
      14       1     378     315     316     316
      15       1     379     377     360     360
      16       1     380     379     361     361
      17       1     381     314     315     315
      18       1     383     313     314     314
      19       1     385     312     313     313
      20       1     386     311     312     312
$ ... 361 like lines cut
*LOAD_SEGMENT
         1       1.0       0.0       326       328       328       328       0.0
*DEFINE_CURVE
         1
       0.0       100
*LOAD_SEGMENT
         2       1.0       0.0       328       329       329       329       0.0
*DEFINE_CURVE
         2
       0.0       100
*LOAD_SEGMENT
         3       1.0       0.0       329       330       330       330       0.0
*DEFINE_CURVE
         3
       0.0       100
*LOAD_SEGMENT
         4       1.0       0.0       330       331       331       331       0.0
*DEFINE_CURVE
         4
       0.0       100
*LOAD_SEGMENT
         5       1.0       0.0       331       332       332       332       0.0
*DEFINE_CURVE
         5
       0.0       100
*LOAD_SEGMENT
         6       1.0       0.0       332       333       333       333       0.0
*DEFINE_CURVE
         6
       0.0       100
*LOAD_SEGMENT
         7       1.0       0.0       333       334       334       334       0.0
*DEFINE_CURVE
         7
       0.0       100
*LOAD_SEGMENT
         8       1.0       0.0       334       335       335       335       0.0
*DEFINE_CURVE
         8
       0.0       100
*LOAD_SEGMENT
         9       1.0       0.0       335       336       336       336       0.0
*DEFINE_CURVE
         9
       0.0       100
*LOAD_SEGMENT
        10       1.0       0.0       336       327       327       327       0.0
*DEFINE_CURVE
        10
       0.0       100
*LOAD_SEGMENT
        11       1.0       0.0       347       348       348       348       0.0
*DEFINE_CURVE
        11
       0.0       100
*LOAD_SEGMENT
        12       1.0       0.0       348       349       349       349       0.0
*DEFINE_CURVE
        12
       0.0       100
*LOAD_SEGMENT
        13       1.0       0.0       349       350       350       350       0.0
*DEFINE_CURVE
        13
       0.0       100
*LOAD_SEGMENT
        14       1.0       0.0       350       351       351       351       0.0
*DEFINE_CURVE
        14
       0.0       100
*LOAD_SEGMENT
        15       1.0       0.0       351       352       352       352       0.0
*DEFINE_CURVE
        15
       0.0       100
*LOAD_SEGMENT
        16       1.0       0.0       352       353       353       353       0.0
*DEFINE_CURVE
        16
       0.0       100
*LOAD_SEGMENT
        17       1.0       0.0       353       354       354       354       0.0
*DEFINE_CURVE
        17
       0.0       100
*LOAD_SEGMENT
        18       1.0       0.0       354       355       355       355       0.0
*DEFINE_CURVE
        18
       0.0       100
*LOAD_SEGMENT
        19       1.0       0.0       355       356       356       356       0.0
*DEFINE_CURVE
        19
       0.0       100
*LOAD_SEGMENT
        20       1.0       0.0       356       337       337       337       0.0
*DEFINE_CURVE
        20
       0.0       100
*BOUNDARY_SPC_SET
         1         0         1         1         0         0         0         0
*SET_NODE_LIST
         1
       327       347       337       326       357       358       359       360
       361       362       363       364       365       338       339       340
       341       342       343       344       345       346
*END
