*KEYWORD
$
$ File created by cubit version 2021.4
$...>....1....>....2....>....3....>....4....>....5....>....6....>....7....>....8
*TITLE
$ cubit(ents/Qt_code/CudaFEMproject/raw_meshes/2D/point_source2.k): 04/05/2022: 15
*PART
Block 1
$    pid     sid     mid   eosid    hgid    grav  adpopt    tmid
       1       1     100       0       0       0       0     100
*SECTION_SHELL
       1
$     t1      t2      t3      t4
       1       1       1       1

*MAT_ELASTIC
     100   7e-06  206800    0.29     0.0     0.0       0
*MAT_THERMAL_ISOTROPIC
     100     0.0     0.0     0.0     0.0     0.0
     500   0.045
*NODE
$    nid               x               y               z      tc      rc
     129             500         -16.129               0       0       0
     370         477.584        -14.2359               0       0       0
     485         486.383        -24.6969               0       0       0
      14         419.355               0               0       0       0
     371         427.419        -13.9682               0       0       0
      13         435.484               0               0       0       0
     372         395.161        -13.9682               0       0       0
     402          411.29        -13.9682               0       0       0
      15         403.226               0               0       0       0
      18         354.839               0               0       0       0
     373         362.903        -13.9682               0       0       0
      17         370.968               0               0       0       0
     374         346.774        -13.9682               0       0       0
      21         306.452               0               0       0       0
     375         314.516        -13.9682               0       0       0
      20         322.581               0               0       0       0
     376         282.258        -13.9682               0       0       0
     396         298.387        -13.9682               0       0       0
      22         290.323               0               0       0       0
      25         241.935               0               0       0       0
$ ... 4497 like lines cut
$
$...>....1....>....2....>....3....>....4....>....5....>....6....>....7....>....8
$    eid     pid      n1      n2      n3      n4      n5      n6      n7      n8
*ELEMENT_SHELL
       1       1     129     370     485     485
       2       1      14     371      13      13
       3       1     372     402      15      15
       4       1      18     373      17      17
       5       1     374     373      18      18
       6       1      21     375      20      20
       7       1     376     396      22      22
       8       1      25     377      24      24
       9       1     378     377      25      25
      10       1     379     392      27      27
      11       1     380     390      29      29
      12       1     381     380      30      30
      13       1     382     381      31      31
      14       1      34     383      33      33
      15       1     384     383      34      34
      16       1     385     384      35      35
      17       1     386     385      36      36
      18       1     387     386      37      37
      19       1     388     387      38      38
      20       1       2      40      39      39
$ ... 8764 like lines cut
*BOUNDARY_SPC_SET
         1         0         1         1         1         1         1         1
*SET_NODE_LIST
         1
         1         5         4         6         9         3         8         7
       130       131       132       133       134       135       136       137
       138       139       140       141       142       143       144       145
       146       147       148       149       150       151       152       153
       154       155       156       157       158       159       100       101
       102       103       104       105       106       107       108       109
       110       111       112       113       114       115       116       117
       118       119       120       121       122       123       124       125
       126       127       128       129       310       311       312       313
       314       315       316       317       318       319       320       321
       322       323       324       325       326       327       328       329
       330       331       332       333       334       335       336       337
       338       339       160       161       162       163       164       165
       166       167       168       169       170       171       172       173
       174       175       176       177       178       179       180       181
       182       183       184       185       186       187       188       189
        70        71        72        73        74        75        76        77
        78        79        80        81        82        83        84        85
        86        87        88        89        90        91        92        93
$ ... 12 like lines cut
*LOAD_NODE_SET
         2         2         1       1.0
*DEFINE_CURVE
         1
       0.0        -1
*SET_NODE_LIST
         2
         2
*END
