*KEYWORD
$
$ File created by cubit version 2021.4
$...>....1....>....2....>....3....>....4....>....5....>....6....>....7....>....8
*TITLE
$ cubit(ments/Qt_code/CudaFEMproject/raw_meshes/2D/point_source.k): 04/05/2022: 14
*PART
Block 1
$    pid     sid     mid   eosid    hgid    grav  adpopt    tmid
       1       1     100       0       0       0       0     100
*SECTION_SHELL
       1
$     t1      t2      t3      t4
       1       1       1       1

*MAT_ELASTIC
     100   7e-06  206800    0.29     0.0     0.0       0
*MAT_THERMAL_ISOTROPIC
     100     0.0     0.0     0.0     0.0     0.0
     500   0.045
*NODE
$    nid               x               y               z      tc      rc
     520         16.6667               0               0       0       0
     543         25.0266        -15.1775               0       0       0
     519         33.3333               0               0       0       0
     511               0               0               0       0       0
     550         12.0483        -10.3205               0       0       0
     510              50               0               0       0       0
     548          37.953        -10.4198               0       0       0
     526              50        -16.6667               0       0       0
     544         13.5511        -24.6351               0       0       0
     521               0        -16.6667               0       0       0
     549         10.4091        -38.0354               0       0       0
     522               0        -33.3333               0       0       0
     512               0             -50               0       0       0
     545         24.5684        -35.0601               0       0       0
     523         16.6667             -50               0       0       0
     513              50             -50               0       0       0
     547         37.8665        -39.5285               0       0       0
     524         33.3333             -50               0       0       0
     546         36.6328             -25               0       0       0
     525              50        -33.3333               0       0       0
$ ... 45 like lines cut
$
$...>....1....>....2....>....3....>....4....>....5....>....6....>....7....>....8
$    eid     pid      n1      n2      n3      n4      n5      n6      n7      n8
*ELEMENT_SHELL
       1       1     520     543     519     519
       2       1     511     550     520     520
       3       1     510     548     526     526
       4       1     544     550     521     521
       5       1     549     544     522     522
       6       1     512     549     522     522
       7       1     545     549     523     523
       8       1     513     547     524     524
       9       1     547     545     524     524
      10       1     526     546     525     525
      11       1     511     521     550     550
      12       1     510     519     548     548
      13       1     544     521     522     522
      14       1     545     546     543     543
      15       1     545     523     524     524
      16       1     545     543     544     544
      17       1     546     547     525     525
      18       1     548     519     543     543
      19       1     513     525     547     547
      20       1     547     546     545     545
$ ... 84 like lines cut
*BOUNDARY_SPC_SET
         1         0         1         1         1         1         1         1
*SET_NODE_LIST
         1
       510       514       513       515       518       512       517       516
       527       528       525       526       539       540       529       530
       523       524       537       538       535       536       541       542
*LOAD_NODE_SET
         2         2         1       1.0
*DEFINE_CURVE
         1
       0.0        -1
*SET_NODE_LIST
         2
       511
*END
