*KEYWORD
$
$ File created by cubit version 2021.4
$...>....1....>....2....>....3....>....4....>....5....>....6....>....7....>....8
*TITLE
$ cubit(cuments/Qt_code/CudaFEMproject/raw_meshes/2D/prak_mesh1.k): 05/11/2022: 12
*PART
Block 1
$    pid     sid     mid   eosid    hgid    grav  adpopt    tmid
       1       1     100       0       0       0       0     100
*SECTION_SHELL
       1
$     t1      t2      t3      t4
       1       1       1       1

*MAT_ELASTIC
     100   7e-06  206800    0.29     0.0     0.0       0
*MAT_THERMAL_ISOTROPIC
     100     0.0     0.0     0.0     0.0     0.0
     500   0.045
*NODE
$    nid               x               y               z      tc      rc
      21         1.49538        0.117689               0       0       0
       2             1.5               0               0       0       0
      32         1.65233               0               0       0       0
       5        0.350168         1.45855               0       0       0
      47        0.308224         1.57513               0       0       0
       4        0.234652         1.48153               0       0       0
      48        0.438479         1.55895               0       0       0
      49        0.677827         1.47025               0       0       0
      69        0.560331         1.51892               0       0       0
       7        0.574025         1.38582               0       0       0
      50        0.899455         1.34613               0       0       0
      67        0.791056         1.41255               0       0       0
       9        0.783748         1.27896               0       0       0
      22               6               0               0       0       0
      33               6               1               0       0       0
      25         4.96661               0               0       0       0
      14         1.21353        0.881678               0       0       0
      51          1.2714          1.0023               0       0       0
      13         1.14061        0.974172               0       0       0
      29         2.38465               0               0       0       0
$ ... 104 like lines cut
$
$...>....1....>....2....>....3....>....4....>....5....>....6....>....7....>....8
$    eid     pid      n1      n2      n3      n4      n5      n6      n7      n8
*ELEMENT_SHELL
       1       1      21       2      32      32
       2       1       5      47       4       4
       3       1      48      47       5       5
       4       1      49      69       7       7
       5       1      50      67       9       9
       6       1      22      33      25      25
       7       1      14      51      13      13
       8       1      29      28      52      52
       9       1      97      63      53      53
      10       1      54      29      52      52
      11       1      19      55      18      18
      12       1      98      53      64      64
      13       1      58      11      12      12
      14       1      59      10      11      11
      15       1      60      25      33      33
      16       1      61      12      13      13
      17       1      62      14      15      15
      18       1      63      15      16      16
      19       1      64      17      18      18
      20       1      65      19      20      20
$ ... 180 like lines cut
*LOAD_SEGMENT
         1       1.0       0.0        22        33        33        33       0.0
*DEFINE_CURVE
         1
       0.0  -1.2e+08
*LOAD_SEGMENT
         2       1.0       0.0        33        34        34        34       0.0
*DEFINE_CURVE
         2
       0.0  -1.2e+08
*LOAD_SEGMENT
         3       1.0       0.0        34        23        23        23       0.0
*DEFINE_CURVE
         3
       0.0  -1.2e+08
*BOUNDARY_SPC_SET
         1         0         1         0         0         0         0         0
*SET_NODE_LIST
         1
        24        42        43        44        45        46         1
*BOUNDARY_SPC_SET
         2         0         0         1         0         0         0         0
*SET_NODE_LIST
         2
        22        25        26        27        28        29        30        31
        32         2
*END
