*KEYWORD
$
$ File created by cubit version 2021.4
$...>....1....>....2....>....3....>....4....>....5....>....6....>....7....>....8
*TITLE
$ cubit(uments/Qt_code/CudaFEMproject/raw_meshes/2D/quasi1Dwave.k): 04/19/2022: 13
*PART
Block 1
$    pid     sid     mid   eosid    hgid    grav  adpopt    tmid
       1       1     100       0       0       0       0     100
*SECTION_SHELL
       1
$     t1      t2      t3      t4
       1       1       1       1

*MAT_ELASTIC
     100   7e-06  206800    0.29     0.0     0.0       0
*MAT_THERMAL_ISOTROPIC
     100     0.0     0.0     0.0     0.0     0.0
     500   0.045
*NODE
$    nid               x               y               z      tc      rc
      68            -500        -469.697               0       0       0
       3            -500            -500               0       0       0
      69        -469.697            -500               0       0       0
       7         409.091             500               0       0       0
     133         425.196         472.607               0       0       0
       6         439.394             500               0       0       0
       9         348.485             500               0       0       0
     134         363.636         474.019               0       0       0
       8         378.788             500               0       0       0
      11         287.879             500               0       0       0
     135          303.03         474.019               0       0       0
      10         318.182             500               0       0       0
     136         242.424         474.019               0       0       0
     166         272.727         474.019               0       0       0
      12         257.576             500               0       0       0
      15         166.667             500               0       0       0
     137         181.818         474.019               0       0       0
      14          196.97             500               0       0       0
      17         106.061             500               0       0       0
     138         121.212         474.019               0       0       0
$ ... 1301 like lines cut
$
$...>....1....>....2....>....3....>....4....>....5....>....6....>....7....>....8
$    eid     pid      n1      n2      n3      n4      n5      n6      n7      n8
*ELEMENT_SHELL
       1       1      68       3      69      69
       2       1       7     133       6       6
       3       1       9     134       8       8
       4       1      11     135      10      10
       5       1     136     166      12      12
       6       1      15     137      14      14
       7       1      17     138      16      16
       8       1     139     160      18      18
       9       1     140     139      19      19
      10       1     141     158      21      21
      11       1      24     142      23      23
      12       1     143     142      24      24
      13       1     144     154      26      26
      14       1     145     144      27      27
      15       1     146     145      28      28
      16       1      31     147      30      30
      17       1     148     147      31      31
      18       1     149     148      32      32
      19       1     150     149      33      33
      20       1     151     150      34      34
$ ... 2488 like lines cut
*LOAD_SEGMENT
         1       1.0       0.0         1         5         5         5       0.0
*DEFINE_CURVE
         1
       0.0         1
*LOAD_SEGMENT
         2       1.0       0.0         5         6         6         6       0.0
*DEFINE_CURVE
         2
       0.0         1
*LOAD_SEGMENT
         3       1.0       0.0         6         7         7         7       0.0
*DEFINE_CURVE
         3
       0.0         1
*LOAD_SEGMENT
         4       1.0       0.0         7         8         8         8       0.0
*DEFINE_CURVE
         4
       0.0         1
*LOAD_SEGMENT
         5       1.0       0.0         8         9         9         9       0.0
*DEFINE_CURVE
         5
       0.0         1
*LOAD_SEGMENT
         6       1.0       0.0         9        10        10        10       0.0
*DEFINE_CURVE
         6
       0.0         1
*LOAD_SEGMENT
         7       1.0       0.0        10        11        11        11       0.0
*DEFINE_CURVE
         7
       0.0         1
*LOAD_SEGMENT
         8       1.0       0.0        11        12        12        12       0.0
*DEFINE_CURVE
         8
       0.0         1
*LOAD_SEGMENT
         9       1.0       0.0        12        13        13        13       0.0
*DEFINE_CURVE
         9
       0.0         1
*LOAD_SEGMENT
        10       1.0       0.0        13        14        14        14       0.0
*DEFINE_CURVE
        10
       0.0         1
*LOAD_SEGMENT
        11       1.0       0.0        14        15        15        15       0.0
*DEFINE_CURVE
        11
       0.0         1
*LOAD_SEGMENT
        12       1.0       0.0        15        16        16        16       0.0
*DEFINE_CURVE
        12
       0.0         1
*LOAD_SEGMENT
        13       1.0       0.0        16        17        17        17       0.0
*DEFINE_CURVE
        13
       0.0         1
*LOAD_SEGMENT
        14       1.0       0.0        17        18        18        18       0.0
*DEFINE_CURVE
        14
       0.0         1
*LOAD_SEGMENT
        15       1.0       0.0        18        19        19        19       0.0
*DEFINE_CURVE
        15
       0.0         1
*LOAD_SEGMENT
        16       1.0       0.0        19        20        20        20       0.0
*DEFINE_CURVE
        16
       0.0         1
*LOAD_SEGMENT
        17       1.0       0.0        20        21        21        21       0.0
*DEFINE_CURVE
        17
       0.0         1
*LOAD_SEGMENT
        18       1.0       0.0        21        22        22        22       0.0
*DEFINE_CURVE
        18
       0.0         1
*LOAD_SEGMENT
        19       1.0       0.0        22        23        23        23       0.0
*DEFINE_CURVE
        19
       0.0         1
*LOAD_SEGMENT
        20       1.0       0.0        23        24        24        24       0.0
*DEFINE_CURVE
        20
       0.0         1
*LOAD_SEGMENT
        21       1.0       0.0        24        25        25        25       0.0
*DEFINE_CURVE
        21
       0.0         1
*LOAD_SEGMENT
        22       1.0       0.0        25        26        26        26       0.0
*DEFINE_CURVE
        22
       0.0         1
*LOAD_SEGMENT
        23       1.0       0.0        26        27        27        27       0.0
*DEFINE_CURVE
        23
       0.0         1
*LOAD_SEGMENT
        24       1.0       0.0        27        28        28        28       0.0
*DEFINE_CURVE
        24
       0.0         1
*LOAD_SEGMENT
        25       1.0       0.0        28        29        29        29       0.0
*DEFINE_CURVE
        25
       0.0         1
*LOAD_SEGMENT
        26       1.0       0.0        29        30        30        30       0.0
*DEFINE_CURVE
        26
       0.0         1
*LOAD_SEGMENT
        27       1.0       0.0        30        31        31        31       0.0
*DEFINE_CURVE
        27
       0.0         1
*LOAD_SEGMENT
        28       1.0       0.0        31        32        32        32       0.0
*DEFINE_CURVE
        28
       0.0         1
*LOAD_SEGMENT
        29       1.0       0.0        32        33        33        33       0.0
*DEFINE_CURVE
        29
       0.0         1
*LOAD_SEGMENT
        30       1.0       0.0        33        34        34        34       0.0
*DEFINE_CURVE
        30
       0.0         1
*LOAD_SEGMENT
        31       1.0       0.0        34        35        35        35       0.0
*DEFINE_CURVE
        31
       0.0         1
*LOAD_SEGMENT
        32       1.0       0.0        35        36        36        36       0.0
*DEFINE_CURVE
        32
       0.0         1
*LOAD_SEGMENT
        33       1.0       0.0        36         2         2         2       0.0
*DEFINE_CURVE
        33
       0.0         1
*BOUNDARY_SPC_SET
         1         0         1         0         0         0         0         0
*SET_NODE_LIST
         1
         2         3         4         1        37        38        39        40
        41        42        43        44        45        46        47        48
        49        50        51        52        53        54        55        56
        57        58        59        60        61        62        63        64
        65        66        67        68       101       102       103       104
       105       106       107       108       109       110       111       112
       113       114       115       116       117       118       119       120
       121       122       123       124       125       126       127       128
       129       130       131       132
*BOUNDARY_SPC_SET
         2         0         1         1         0         0         0         0
*SET_NODE_LIST
         2
         3        69        70        71        72        73        74        75
        76        77        78        79        80        81        82        83
        84        85        86        87        88        89        90        91
        92        93        94        95        96        97        98        99
       100         4
*END
