*KEYWORD
$
$ File created by cubit version 2021.4
$...>....1....>....2....>....3....>....4....>....5....>....6....>....7....>....8
*TITLE
$ cubit(Qt_code/CudaFEMproject/raw_meshes/2D/quasi1Dwave_taller.k): 04/19/2022: 16
*PART
Block 1
$    pid     sid     mid   eosid    hgid    grav  adpopt    tmid
       1       1     100       0       0       0       0     100
*SECTION_SHELL
       1
$     t1      t2      t3      t4
       1       1       1       1

*MAT_ELASTIC
     100   7e-06  206800    0.29     0.0     0.0       0
*MAT_THERMAL_ISOTROPIC
     100     0.0     0.0     0.0     0.0     0.0
     500   0.045
*NODE
$    nid               x               y               z      tc      rc
     227             250        -225.564               0       0       0
     301         223.954        -240.602               0       0       0
     226             250        -255.639               0       0       0
     302         208.998         1973.47               0       0       0
     300             250         1969.92               0       0       0
       5         220.588            2000               0       0       0
     303         177.756         1972.55               0       0       0
       6         191.176            2000               0       0       0
     304         147.059         1974.02               0       0       0
       7         161.765            2000               0       0       0
     305         117.647         1974.02               0       0       0
       8         132.353            2000               0       0       0
     306         88.2353         1974.02               0       0       0
       9         102.941            2000               0       0       0
     307         58.8235         1974.02               0       0       0
      10         73.5294            2000               0       0       0
     308         29.4118         1974.02               0       0       0
      11         44.1176            2000               0       0       0
     309               0         1974.02               0       0       0
      12         14.7059            2000               0       0       0
$ ... 2658 like lines cut
$
$...>....1....>....2....>....3....>....4....>....5....>....6....>....7....>....8
$    eid     pid      n1      n2      n3      n4      n5      n6      n7      n8
*ELEMENT_SHELL
       1       1     227     301     226     226
       2       1     302     300       5       5
       3       1     303     302       6       6
       4       1     304     303       7       7
       5       1     305     304       8       8
       6       1     306     305       9       9
       7       1     307     306      10      10
       8       1     308     307      11      11
       9       1     309     308      12      12
      10       1     310     309      13      13
      11       1     311     310      14      14
      12       1     312     311      15      15
      13       1     313     312      16      16
      14       1     314     313      17      17
      15       1     315     314      18      18
      16       1     316     315      19      19
      17       1       2      21      20      20
      18       1     300       1       5       5
      19       1     317     316      21      21
      20       1     319     318      23      23
$ ... 5034 like lines cut
*LOAD_SEGMENT
         1       1.0       0.0         1         5         5         5       0.0
*DEFINE_CURVE
         1
       0.0         1
*LOAD_SEGMENT
         2       1.0       0.0         5         6         6         6       0.0
*DEFINE_CURVE
         2
       0.0         1
*LOAD_SEGMENT
         3       1.0       0.0         6         7         7         7       0.0
*DEFINE_CURVE
         3
       0.0         1
*LOAD_SEGMENT
         4       1.0       0.0         7         8         8         8       0.0
*DEFINE_CURVE
         4
       0.0         1
*LOAD_SEGMENT
         5       1.0       0.0         8         9         9         9       0.0
*DEFINE_CURVE
         5
       0.0         1
*LOAD_SEGMENT
         6       1.0       0.0         9        10        10        10       0.0
*DEFINE_CURVE
         6
       0.0         1
*LOAD_SEGMENT
         7       1.0       0.0        10        11        11        11       0.0
*DEFINE_CURVE
         7
       0.0         1
*LOAD_SEGMENT
         8       1.0       0.0        11        12        12        12       0.0
*DEFINE_CURVE
         8
       0.0         1
*LOAD_SEGMENT
         9       1.0       0.0        12        13        13        13       0.0
*DEFINE_CURVE
         9
       0.0         1
*LOAD_SEGMENT
        10       1.0       0.0        13        14        14        14       0.0
*DEFINE_CURVE
        10
       0.0         1
*LOAD_SEGMENT
        11       1.0       0.0        14        15        15        15       0.0
*DEFINE_CURVE
        11
       0.0         1
*LOAD_SEGMENT
        12       1.0       0.0        15        16        16        16       0.0
*DEFINE_CURVE
        12
       0.0         1
*LOAD_SEGMENT
        13       1.0       0.0        16        17        17        17       0.0
*DEFINE_CURVE
        13
       0.0         1
*LOAD_SEGMENT
        14       1.0       0.0        17        18        18        18       0.0
*DEFINE_CURVE
        14
       0.0         1
*LOAD_SEGMENT
        15       1.0       0.0        18        19        19        19       0.0
*DEFINE_CURVE
        15
       0.0         1
*LOAD_SEGMENT
        16       1.0       0.0        19        20        20        20       0.0
*DEFINE_CURVE
        16
       0.0         1
*LOAD_SEGMENT
        17       1.0       0.0        20         2         2         2       0.0
*DEFINE_CURVE
        17
       0.0         1
*BOUNDARY_SPC_SET
         1         0         1         0         0         0         0         0
*SET_NODE_LIST
         1
         2         3         4         1        21        22        23        24
        25        26        27        28        29        30        31        32
        33        34        35        36        37        38        39        40
        41        42        43        44        45        46        47        48
        49        50        51        52        53        54        55        56
        57        58        59        60        61        62        63        64
        65        66        67        68        69        70        71        72
        73        74        75        76        77        78        79        80
        81        82        83        84        85        86        87        88
        89        90        91        92        93        94        95        96
        97        98        99       100       101       102       103       104
       105       106       107       108       109       110       111       112
       113       114       115       116       117       118       119       120
       121       122       123       124       125       126       127       128
       129       130       131       132       133       134       135       136
       137       138       139       140       141       142       143       144
       145       146       147       148       149       150       151       152
       169       170       171       172       173       174       175       176
       177       178       179       180       181       182       183       184
$ ... 15 like lines cut
*BOUNDARY_SPC_SET
         2         0         1         1         0         0         0         0
*SET_NODE_LIST
         2
         3       153       154       155       156       157       158       159
       160       161       162       163       164       165       166       167
       168         4
*END
