*KEYWORD
$
$ File created by cubit version 2021.11
$...>....1....>....2....>....3....>....4....>....5....>....6....>....7....>....8
*TITLE
$ cubit(nts/CudaFEMproject/raw_meshes/2D/quasi1Dwave_taller_M10.k): 06/02/2022: 23
*PART
Block 1
$    pid     sid     mid   eosid    hgid    grav  adpopt    tmid
       1       1     100       0       0       0       0     100
*SECTION_SHELL
       1
$     t1      t2      t3      t4
       1       1       1       1

*MAT_ELASTIC
     100   7e-06  206800    0.29     0.0     0.0       0
*MAT_THERMAL_ISOTROPIC
     100     0.0     0.0     0.0     0.0     0.0
     500   0.045
*NODE
$    nid               x               y               z      tc      rc
     676             250            -250               0       0       0
     901          241.34            -255               0       0       0
     675             250            -260               0       0       0
       6             230            2000               0       0       0
     902         234.833         1991.31               0       0       0
       5             240            2000               0       0       0
     903         225.288          1990.9               0       0       0
     904             215         1991.34               0       0       0
       7             220            2000               0       0       0
     905             205         1991.34               0       0       0
       8             210            2000               0       0       0
     906             195         1991.34               0       0       0
       9             200            2000               0       0       0
      12             170            2000               0       0       0
     907             175         1991.34               0       0       0
      11             180            2000               0       0       0
     908             165         1991.34               0       0       0
     909             155         1991.34               0       0       0
      13             160            2000               0       0       0
     910             145         1991.34               0       0       0
$ ... 23590 like lines cut
$
$...>....1....>....2....>....3....>....4....>....5....>....6....>....7....>....8
$    eid     pid      n1      n2      n3      n4      n5      n6      n7      n8
*ELEMENT_SHELL
       1       1     676     901     675     675
       2       1       6     902       5       5
       3       1     903     902       6       6
       4       1     904     903       7       7
       5       1     905     904       8       8
       6       1     906     905       9       9
       7       1      12     907      11      11
       8       1     908     907      12      12
       9       1     909     908      13      13
      10       1     910     909      14      14
      11       1     911     910      15      15
      12       1     912     911      16      16
      13       1     913     912      17      17
      14       1     914     913      18      18
      15       1     915     914      19      19
      16       1     916     915      20      20
      17       1     917     916      21      21
      18       1     918     917      22      22
      19       1      25     919      24      24
      20       1     920     919      25      25
$ ... 46298 like lines cut
*LOAD_SEGMENT
         1       1.0       0.0         1         5         5         5       0.0
*DEFINE_CURVE
         1
       0.0         1
*LOAD_SEGMENT
         2       1.0       0.0         5         6         6         6       0.0
*DEFINE_CURVE
         2
       0.0         1
*LOAD_SEGMENT
         3       1.0       0.0         6         7         7         7       0.0
*DEFINE_CURVE
         3
       0.0         1
*LOAD_SEGMENT
         4       1.0       0.0         7         8         8         8       0.0
*DEFINE_CURVE
         4
       0.0         1
*LOAD_SEGMENT
         5       1.0       0.0         8         9         9         9       0.0
*DEFINE_CURVE
         5
       0.0         1
*LOAD_SEGMENT
         6       1.0       0.0         9        10        10        10       0.0
*DEFINE_CURVE
         6
       0.0         1
*LOAD_SEGMENT
         7       1.0       0.0        10        11        11        11       0.0
*DEFINE_CURVE
         7
       0.0         1
*LOAD_SEGMENT
         8       1.0       0.0        11        12        12        12       0.0
*DEFINE_CURVE
         8
       0.0         1
*LOAD_SEGMENT
         9       1.0       0.0        12        13        13        13       0.0
*DEFINE_CURVE
         9
       0.0         1
*LOAD_SEGMENT
        10       1.0       0.0        13        14        14        14       0.0
*DEFINE_CURVE
        10
       0.0         1
*LOAD_SEGMENT
        11       1.0       0.0        14        15        15        15       0.0
*DEFINE_CURVE
        11
       0.0         1
*LOAD_SEGMENT
        12       1.0       0.0        15        16        16        16       0.0
*DEFINE_CURVE
        12
       0.0         1
*LOAD_SEGMENT
        13       1.0       0.0        16        17        17        17       0.0
*DEFINE_CURVE
        13
       0.0         1
*LOAD_SEGMENT
        14       1.0       0.0        17        18        18        18       0.0
*DEFINE_CURVE
        14
       0.0         1
*LOAD_SEGMENT
        15       1.0       0.0        18        19        19        19       0.0
*DEFINE_CURVE
        15
       0.0         1
*LOAD_SEGMENT
        16       1.0       0.0        19        20        20        20       0.0
*DEFINE_CURVE
        16
       0.0         1
*LOAD_SEGMENT
        17       1.0       0.0        20        21        21        21       0.0
*DEFINE_CURVE
        17
       0.0         1
*LOAD_SEGMENT
        18       1.0       0.0        21        22        22        22       0.0
*DEFINE_CURVE
        18
       0.0         1
*LOAD_SEGMENT
        19       1.0       0.0        22        23        23        23       0.0
*DEFINE_CURVE
        19
       0.0         1
*LOAD_SEGMENT
        20       1.0       0.0        23        24        24        24       0.0
*DEFINE_CURVE
        20
       0.0         1
*LOAD_SEGMENT
        21       1.0       0.0        24        25        25        25       0.0
*DEFINE_CURVE
        21
       0.0         1
*LOAD_SEGMENT
        22       1.0       0.0        25        26        26        26       0.0
*DEFINE_CURVE
        22
       0.0         1
*LOAD_SEGMENT
        23       1.0       0.0        26        27        27        27       0.0
*DEFINE_CURVE
        23
       0.0         1
*LOAD_SEGMENT
        24       1.0       0.0        27        28        28        28       0.0
*DEFINE_CURVE
        24
       0.0         1
*LOAD_SEGMENT
        25       1.0       0.0        28        29        29        29       0.0
*DEFINE_CURVE
        25
       0.0         1
*LOAD_SEGMENT
        26       1.0       0.0        29        30        30        30       0.0
*DEFINE_CURVE
        26
       0.0         1
*LOAD_SEGMENT
        27       1.0       0.0        30        31        31        31       0.0
*DEFINE_CURVE
        27
       0.0         1
*LOAD_SEGMENT
        28       1.0       0.0        31        32        32        32       0.0
*DEFINE_CURVE
        28
       0.0         1
*LOAD_SEGMENT
        29       1.0       0.0        32        33        33        33       0.0
*DEFINE_CURVE
        29
       0.0         1
*LOAD_SEGMENT
        30       1.0       0.0        33        34        34        34       0.0
*DEFINE_CURVE
        30
       0.0         1
*LOAD_SEGMENT
        31       1.0       0.0        34        35        35        35       0.0
*DEFINE_CURVE
        31
       0.0         1
*LOAD_SEGMENT
        32       1.0       0.0        35        36        36        36       0.0
*DEFINE_CURVE
        32
       0.0         1
*LOAD_SEGMENT
        33       1.0       0.0        36        37        37        37       0.0
*DEFINE_CURVE
        33
       0.0         1
*LOAD_SEGMENT
        34       1.0       0.0        37        38        38        38       0.0
*DEFINE_CURVE
        34
       0.0         1
*LOAD_SEGMENT
        35       1.0       0.0        38        39        39        39       0.0
*DEFINE_CURVE
        35
       0.0         1
*LOAD_SEGMENT
        36       1.0       0.0        39        40        40        40       0.0
*DEFINE_CURVE
        36
       0.0         1
*LOAD_SEGMENT
        37       1.0       0.0        40        41        41        41       0.0
*DEFINE_CURVE
        37
       0.0         1
*LOAD_SEGMENT
        38       1.0       0.0        41        42        42        42       0.0
*DEFINE_CURVE
        38
       0.0         1
*LOAD_SEGMENT
        39       1.0       0.0        42        43        43        43       0.0
*DEFINE_CURVE
        39
       0.0         1
*LOAD_SEGMENT
        40       1.0       0.0        43        44        44        44       0.0
*DEFINE_CURVE
        40
       0.0         1
*LOAD_SEGMENT
        41       1.0       0.0        44        45        45        45       0.0
*DEFINE_CURVE
        41
       0.0         1
*LOAD_SEGMENT
        42       1.0       0.0        45        46        46        46       0.0
*DEFINE_CURVE
        42
       0.0         1
*LOAD_SEGMENT
        43       1.0       0.0        46        47        47        47       0.0
*DEFINE_CURVE
        43
       0.0         1
*LOAD_SEGMENT
        44       1.0       0.0        47        48        48        48       0.0
*DEFINE_CURVE
        44
       0.0         1
*LOAD_SEGMENT
        45       1.0       0.0        48        49        49        49       0.0
*DEFINE_CURVE
        45
       0.0         1
*LOAD_SEGMENT
        46       1.0       0.0        49        50        50        50       0.0
*DEFINE_CURVE
        46
       0.0         1
*LOAD_SEGMENT
        47       1.0       0.0        50        51        51        51       0.0
*DEFINE_CURVE
        47
       0.0         1
*LOAD_SEGMENT
        48       1.0       0.0        51        52        52        52       0.0
*DEFINE_CURVE
        48
       0.0         1
*LOAD_SEGMENT
        49       1.0       0.0        52        53        53        53       0.0
*DEFINE_CURVE
        49
       0.0         1
*LOAD_SEGMENT
        50       1.0       0.0        53         2         2         2       0.0
*DEFINE_CURVE
        50
       0.0         1
*BOUNDARY_SPC_SET
         1         0         1         0         0         0         0         0
*SET_NODE_LIST
         1
         2         3         4         1        54        55        56        57
        58        59        60        61        62        63        64        65
        66        67        68        69        70        71        72        73
        74        75        76        77        78        79        80        81
        82        83        84        85        86        87        88        89
        90        91        92        93        94        95        96        97
        98        99       100       101       102       103       104       105
       106       107       108       109       110       111       112       113
       114       115       116       117       118       119       120       121
       122       123       124       125       126       127       128       129
       130       131       132       133       134       135       136       137
       138       139       140       141       142       143       144       145
       146       147       148       149       150       151       152       153
       154       155       156       157       158       159       160       161
       162       163       164       165       166       167       168       169
       170       171       172       173       174       175       176       177
       178       179       180       181       182       183       184       185
       186       187       188       189       190       191       192       193
       194       195       196       197       198       199       200       201
$ ... 82 like lines cut
*BOUNDARY_SPC_SET
         2         0         1         1         0         0         0         0
*SET_NODE_LIST
         2
         3       453       454       455       456       457       458       459
       460       461       462       463       464       465       466       467
       468       469       470       471       472       473       474       475
       476       477       478       479       480       481       482       483
       484       485       486       487       488       489       490       491
       492       493       494       495       496       497       498       499
       500       501         4
*END
