*KEYWORD
$
$ File created by cubit version 17.1
$...>....1....>....2....>....3....>....4....>....5....>....6....>....7....>....8
*TITLE
$ cubit(D:/Fidesys/rect/rect.k): 04/05/2021: 01:29:07
*PART
Block 1
$    pid     sid     mid   eosid    hgid    grav  adpopt    tmid
       1       1     100       0       0       0       0     100
*SECTION_SHELL
       1
$     t1      t2      t3      t4
       1       1       1       1

*MAT_ELASTIC
     100   7e-06  206800    0.29     0.0     0.0       0
*MAT_THERMAL_ISOTROPIC
     100     0.0     0.0     0.0     0.0     0.0
     500   0.045
*NODE
$    nid               x               y               z      tc      rc
     140               2               5               0       0       0
     174         2.56465         4.10576               0       0       0
     139               3               5               0       0       0
     142               0               5               0       0       0
     175             0.5         4.17653               0       0       0
     141               1               5               0       0       0
     144              -2               5               0       0       0
     176            -1.5         4.17653               0       0       0
     143              -1               5               0       0       0
     177        -2.56465         4.10576               0       0       0
     178        -3.62383         4.13213               0       0       0
     145              -3               5               0       0       0
     135              -5               5               0       0       0
     147              -5               4               0       0       0
     146              -4               5               0       0       0
     179            -0.5         4.17653               0       0       0
     180             1.5         4.17653               0       0       0
     182         3.62382         4.13215               0       0       0
     138               4               5               0       0       0
     183        -4.16814          2.5042               0       0       0
$ ... 118 like lines cut
$
$...>....1....>....2....>....3....>....4....>....5....>....6....>....7....>....8
$    eid     pid      n1      n2      n3      n4      n5      n6      n7      n8
*ELEMENT_SHELL
       1       1     140     174     139     139
       2       1     142     175     141     141
       3       1     144     176     143     143
       4       1     177     176     144     144
       5       1     178     177     145     145
       6       1     135     147     146     146
       7       1     179     142     143     143
       8       1     180     140     141     141
       9       1     178     146     147     147
      10       1     182     138     139     139
      11       1     183     181     148     148
      12       1     173     134     138     138
      13       1     185     184     150     150
      14       1     153     186     152     152
      15       1     187     186     153     153
      16       1     188     187     154     154
      17       1     136     156     155     155
      18       1     188     155     156     156
      19       1     190     151     152     152
      20       1     192     191     158     158
$ ... 214 like lines cut
*BOUNDARY_SPC_SET
         1         0         1         1         0         0         0         0
*SET_NODE_LIST
         1
       134       138       139       140       141       142       143       144
       145       146       135
*LOAD_NODE_SET
         2         2         1       1.0
*DEFINE_CURVE
         1
       0.0        -1
*SET_NODE_LIST
         2
       136       156       157       158       159       160       161       162
       163       164       137
*END
