*KEYWORD
$
$ File created by cubit version 2021.11
$...>....1....>....2....>....3....>....4....>....5....>....6....>....7....>....8
*TITLE
$ cubit(C:/Users/sabinin/Documents/Praktikum/task7_denser.k): 12/21/2021: 17:57:58
*PART
Block 1
$    pid     sid     mid   eosid    hgid    grav  adpopt    tmid
       1       1     100       0       0       0       0     100
*SECTION_SHELL
       1
$     t1      t2      t3      t4
       1       1       1       1

*MAT_ELASTIC
     100   7e-06  206800    0.29     0.0     0.0       0
*MAT_THERMAL_ISOTROPIC
     100     0.0     0.0     0.0     0.0     0.0
     500   0.045
*NODE
$    nid               x               y               z      tc      rc
       3         1.48817          -0.188               0       0       0
     247         1.58822       -0.150062               0       0       0
       2         1.49704      -0.0941858               0       0       0
     248         1.57566       -0.249612               0       0       0
     249         1.53197       -0.445067               0       0       0
     442         1.55688       -0.347987               0       0       0
       5         1.45287       -0.373035               0       0       0
      11         1.21353       -0.881678               0       0       0
     250         1.31941       -0.896777               0       0       0
      10         1.26649        -0.80374               0       0       0
      15        0.956136        -1.15577               0       0       0
     251         1.05502        -1.19664               0       0       0
      14         1.02682        -1.09345               0       0       0
     134         4.28571               3               0       0       0
     252         4.40816         2.77006               0       0       0
     133         4.53061               3               0       0       0
     197              -6            -2.5               0       0       0
     253        -5.76836        -2.37646               0       0       0
     196              -6           -2.25               0       0       0
      49        -1.48817          -0.188               0       0       0
$ ... 1423 like lines cut
$
$...>....1....>....2....>....3....>....4....>....5....>....6....>....7....>....8
$    eid     pid      n1      n2      n3      n4      n5      n6      n7      n8
*ELEMENT_SHELL
       1       1       3     247       2       2
       2       1     248     247       3       3
       3       1     249     442       5       5
       4       1      11     250      10      10
       5       1      15     251      14      14
       6       1     134     252     133     133
       7       1     197     253     196     196
       8       1      49     254      48      48
       9       1      54     255      53      53
      10       1      57     256      56      56
      11       1      61     257      60      60
      12       1      65     258      64      64
      13       1      78     259      77      77
      14       1     260     259      78      78
      15       1     261     260      79      79
      16       1     262     261      80      80
      17       1     263     262      81      81
      18       1     264     263      82      82
      19       1     265     264      83      83
      20       1     266     265      84      84
$ ... 2620 like lines cut
*LOAD_SEGMENT
         1       1.0       0.0       102       176       176       176       0.0
*DEFINE_CURVE
         1
       0.0  -1.2e+08
*LOAD_SEGMENT
         2       1.0       0.0       176       177       177       177       0.0
*DEFINE_CURVE
         2
       0.0  -1.2e+08
*LOAD_SEGMENT
         3       1.0       0.0       177       178       178       178       0.0
*DEFINE_CURVE
         3
       0.0  -1.2e+08
*LOAD_SEGMENT
         4       1.0       0.0       178       179       179       179       0.0
*DEFINE_CURVE
         4
       0.0  -1.2e+08
*LOAD_SEGMENT
         5       1.0       0.0       179       180       180       180       0.0
*DEFINE_CURVE
         5
       0.0  -1.2e+08
*LOAD_SEGMENT
         6       1.0       0.0       180       181       181       181       0.0
*DEFINE_CURVE
         6
       0.0  -1.2e+08
*LOAD_SEGMENT
         7       1.0       0.0       181       182       182       182       0.0
*DEFINE_CURVE
         7
       0.0  -1.2e+08
*LOAD_SEGMENT
         8       1.0       0.0       182       183       183       183       0.0
*DEFINE_CURVE
         8
       0.0  -1.2e+08
*LOAD_SEGMENT
         9       1.0       0.0       183       184       184       184       0.0
*DEFINE_CURVE
         9
       0.0  -1.2e+08
*LOAD_SEGMENT
        10       1.0       0.0       184       185       185       185       0.0
*DEFINE_CURVE
        10
       0.0  -1.2e+08
*LOAD_SEGMENT
        11       1.0       0.0       185       186       186       186       0.0
*DEFINE_CURVE
        11
       0.0  -1.2e+08
*LOAD_SEGMENT
        12       1.0       0.0       186       187       187       187       0.0
*DEFINE_CURVE
        12
       0.0  -1.2e+08
*LOAD_SEGMENT
        13       1.0       0.0       187       188       188       188       0.0
*DEFINE_CURVE
        13
       0.0  -1.2e+08
*LOAD_SEGMENT
        14       1.0       0.0       188       189       189       189       0.0
*DEFINE_CURVE
        14
       0.0  -1.2e+08
*LOAD_SEGMENT
        15       1.0       0.0       189       190       190       190       0.0
*DEFINE_CURVE
        15
       0.0  -1.2e+08
*LOAD_SEGMENT
        16       1.0       0.0       190       191       191       191       0.0
*DEFINE_CURVE
        16
       0.0  -1.2e+08
*LOAD_SEGMENT
        17       1.0       0.0       191       192       192       192       0.0
*DEFINE_CURVE
        17
       0.0  -1.2e+08
*LOAD_SEGMENT
        18       1.0       0.0       192       193       193       193       0.0
*DEFINE_CURVE
        18
       0.0  -1.2e+08
*LOAD_SEGMENT
        19       1.0       0.0       193       194       194       194       0.0
*DEFINE_CURVE
        19
       0.0  -1.2e+08
*LOAD_SEGMENT
        20       1.0       0.0       194       195       195       195       0.0
*DEFINE_CURVE
        20
       0.0  -1.2e+08
*LOAD_SEGMENT
        21       1.0       0.0       195       196       196       196       0.0
*DEFINE_CURVE
        21
       0.0  -1.2e+08
*LOAD_SEGMENT
        22       1.0       0.0       196       197       197       197       0.0
*DEFINE_CURVE
        22
       0.0  -1.2e+08
*LOAD_SEGMENT
        23       1.0       0.0       197       198       198       198       0.0
*DEFINE_CURVE
        23
       0.0  -1.2e+08
*LOAD_SEGMENT
        24       1.0       0.0       198       103       103       103       0.0
*DEFINE_CURVE
        24
       0.0  -1.2e+08
*LOAD_SEGMENT
        25       1.0       0.0       104       105       105       105       0.0
*DEFINE_CURVE
        25
       0.0  -1.2e+08
*LOAD_SEGMENT
        26       1.0       0.0       105       106       106       106       0.0
*DEFINE_CURVE
        26
       0.0  -1.2e+08
*LOAD_SEGMENT
        27       1.0       0.0       106       107       107       107       0.0
*DEFINE_CURVE
        27
       0.0  -1.2e+08
*LOAD_SEGMENT
        28       1.0       0.0       107       108       108       108       0.0
*DEFINE_CURVE
        28
       0.0  -1.2e+08
*LOAD_SEGMENT
        29       1.0       0.0       108       109       109       109       0.0
*DEFINE_CURVE
        29
       0.0  -1.2e+08
*LOAD_SEGMENT
        30       1.0       0.0       109       110       110       110       0.0
*DEFINE_CURVE
        30
       0.0  -1.2e+08
*LOAD_SEGMENT
        31       1.0       0.0       110       111       111       111       0.0
*DEFINE_CURVE
        31
       0.0  -1.2e+08
*LOAD_SEGMENT
        32       1.0       0.0       111       112       112       112       0.0
*DEFINE_CURVE
        32
       0.0  -1.2e+08
*LOAD_SEGMENT
        33       1.0       0.0       112       113       113       113       0.0
*DEFINE_CURVE
        33
       0.0  -1.2e+08
*LOAD_SEGMENT
        34       1.0       0.0       113       114       114       114       0.0
*DEFINE_CURVE
        34
       0.0  -1.2e+08
*LOAD_SEGMENT
        35       1.0       0.0       114       115       115       115       0.0
*DEFINE_CURVE
        35
       0.0  -1.2e+08
*LOAD_SEGMENT
        36       1.0       0.0       115       116       116       116       0.0
*DEFINE_CURVE
        36
       0.0  -1.2e+08
*LOAD_SEGMENT
        37       1.0       0.0       116       117       117       117       0.0
*DEFINE_CURVE
        37
       0.0  -1.2e+08
*LOAD_SEGMENT
        38       1.0       0.0       117       118       118       118       0.0
*DEFINE_CURVE
        38
       0.0  -1.2e+08
*LOAD_SEGMENT
        39       1.0       0.0       118       119       119       119       0.0
*DEFINE_CURVE
        39
       0.0  -1.2e+08
*LOAD_SEGMENT
        40       1.0       0.0       119       120       120       120       0.0
*DEFINE_CURVE
        40
       0.0  -1.2e+08
*LOAD_SEGMENT
        41       1.0       0.0       120       121       121       121       0.0
*DEFINE_CURVE
        41
       0.0  -1.2e+08
*LOAD_SEGMENT
        42       1.0       0.0       121       122       122       122       0.0
*DEFINE_CURVE
        42
       0.0  -1.2e+08
*LOAD_SEGMENT
        43       1.0       0.0       122       123       123       123       0.0
*DEFINE_CURVE
        43
       0.0  -1.2e+08
*LOAD_SEGMENT
        44       1.0       0.0       123       124       124       124       0.0
*DEFINE_CURVE
        44
       0.0  -1.2e+08
*LOAD_SEGMENT
        45       1.0       0.0       124       125       125       125       0.0
*DEFINE_CURVE
        45
       0.0  -1.2e+08
*LOAD_SEGMENT
        46       1.0       0.0       125       126       126       126       0.0
*DEFINE_CURVE
        46
       0.0  -1.2e+08
*LOAD_SEGMENT
        47       1.0       0.0       126       127       127       127       0.0
*DEFINE_CURVE
        47
       0.0  -1.2e+08
*LOAD_SEGMENT
        48       1.0       0.0       127       101       101       101       0.0
*DEFINE_CURVE
        48
       0.0  -1.2e+08
*BOUNDARY_SPC_SET
         1         0         1         1         1         1         1         1
*SET_NODE_LIST
         1
       101       102       103       104       128       129       130       131
       132       133       134       135       136       137       138       139
       140       141       142       143       144       145       146       147
       148       149       150       151       152       153       154       155
       156       157       158       159       160       161       162       163
       164       165       166       167       168       169       170       171
       172       173       174       175       199       200       201       202
       203       204       205       206       207       208       209       210
       211       212       213       214       215       216       217       218
       219       220       221       222       223       224       225       226
       227       228       229       230       231       232       233       234
       235       236       237       238       239       240       241       242
       243       244       245       246
*END
