*KEYWORD
$
$ File created by cubit version 2021.11
$...>....1....>....2....>....3....>....4....>....5....>....6....>....7....>....8
*TITLE
$ cubit(C:/Users/sabinin/Documents/Praktikum/task7.k): 12/21/2021: 15:04:12
*PART
Block 1
$    pid     sid     mid   eosid    hgid    grav  adpopt    tmid
       1       1     100       0       0       0       0     100
*SECTION_SHELL
       1
$     t1      t2      t3      t4
       1       1       1       1

*MAT_ELASTIC
     100   7e-06  206800    0.29     0.0     0.0       0
*MAT_THERMAL_ISOTROPIC
     100     0.0     0.0     0.0     0.0     0.0
     500   0.045
*NODE
$    nid               x               y               z      tc      rc
       5         1.31446       -0.722631               0       0       0
      99         1.52842       -0.719236               0       0       0
       4         1.39466       -0.552187               0       0       0
     100         1.42623       -0.905104               0       0       0
     101         1.15638        -1.23138               0       0       0
     169         1.30157        -1.07673               0       0       0
       7         1.09345        -1.02682               0       0       0
      11        0.463525        -1.42658               0       0       0
     102        0.621821        -1.57064               0       0       0
      10        0.638669        -1.35724               0       0       0
      16       -0.463525        -1.42658               0       0       0
     103        -0.42007        -1.63616               0       0       0
      15       -0.281072        -1.47343               0       0       0
      21        -1.21353       -0.881678               0       0       0
     104        -1.30157        -1.07673               0       0       0
      20        -1.09345        -1.02682               0       0       0
      24        -1.45287       -0.373035               0       0       0
     105        -1.60653       -0.522016               0       0       0
      23        -1.39466       -0.552187               0       0       0
      27        -1.48817           0.188               0       0       0
$ ... 315 like lines cut
$
$...>....1....>....2....>....3....>....4....>....5....>....6....>....7....>....8
$    eid     pid      n1      n2      n3      n4      n5      n6      n7      n8
*ELEMENT_SHELL
       1       1       5      99       4       4
       2       1     100      99       5       5
       3       1     101     169       7       7
       4       1      11     102      10      10
       5       1      16     103      15      15
       6       1      21     104      20      20
       7       1      24     105      23      23
       8       1      27     106      26      26
       9       1      29     107      28      28
      10       1      31     108      30      30
      11       1     109     132      32      32
      12       1      36     110      35      35
      13       1      40     111      39      39
      14       1     112     111      40      40
      15       1     113     112      41      41
      16       1     114     113      42      42
      17       1     115     114      43      43
      18       1     116     115      44      44
      19       1     117     116      45      45
      20       1     118     117      46      46
$ ... 552 like lines cut
*LOAD_SEGMENT
         1       1.0       0.0        52        70        70        70       0.0
*DEFINE_CURVE
         1
       0.0  -1.2e+08
*LOAD_SEGMENT
         2       1.0       0.0        70        71        71        71       0.0
*DEFINE_CURVE
         2
       0.0  -1.2e+08
*LOAD_SEGMENT
         3       1.0       0.0        71        72        72        72       0.0
*DEFINE_CURVE
         3
       0.0  -1.2e+08
*LOAD_SEGMENT
         4       1.0       0.0        72        73        73        73       0.0
*DEFINE_CURVE
         4
       0.0  -1.2e+08
*LOAD_SEGMENT
         5       1.0       0.0        73        74        74        74       0.0
*DEFINE_CURVE
         5
       0.0  -1.2e+08
*LOAD_SEGMENT
         6       1.0       0.0        74        75        75        75       0.0
*DEFINE_CURVE
         6
       0.0  -1.2e+08
*LOAD_SEGMENT
         7       1.0       0.0        75        76        76        76       0.0
*DEFINE_CURVE
         7
       0.0  -1.2e+08
*LOAD_SEGMENT
         8       1.0       0.0        76        53        53        53       0.0
*DEFINE_CURVE
         8
       0.0  -1.2e+08
*LOAD_SEGMENT
         9       1.0       0.0        54        92        92        92       0.0
*DEFINE_CURVE
         9
       0.0  -1.2e+08
*LOAD_SEGMENT
        10       1.0       0.0        92        93        93        93       0.0
*DEFINE_CURVE
        10
       0.0  -1.2e+08
*LOAD_SEGMENT
        11       1.0       0.0        93        94        94        94       0.0
*DEFINE_CURVE
        11
       0.0  -1.2e+08
*LOAD_SEGMENT
        12       1.0       0.0        94        95        95        95       0.0
*DEFINE_CURVE
        12
       0.0  -1.2e+08
*LOAD_SEGMENT
        13       1.0       0.0        95        96        96        96       0.0
*DEFINE_CURVE
        13
       0.0  -1.2e+08
*LOAD_SEGMENT
        14       1.0       0.0        96        97        97        97       0.0
*DEFINE_CURVE
        14
       0.0  -1.2e+08
*LOAD_SEGMENT
        15       1.0       0.0        97        98        98        98       0.0
*DEFINE_CURVE
        15
       0.0  -1.2e+08
*LOAD_SEGMENT
        16       1.0       0.0        98        51        51        51       0.0
*DEFINE_CURVE
        16
       0.0  -1.2e+08
*BOUNDARY_SPC_SET
         1         0         1         1         1         1         1         1
*SET_NODE_LIST
         1
        51        52        53        54        55        56        57        58
        59        60        61        62        63        64        65        66
        67        68        69        77        78        79        80        81
        82        83        84        85        86        87        88        89
        90        91
*END
