*KEYWORD
$
$ File created by cubit version 2021.11
$...>....1....>....2....>....3....>....4....>....5....>....6....>....7....>....8
*TITLE
$ cubit(/Users/sabinin/Documents/Praktikum/task7_int25_factor20.k): 12/21/2021: 19
*PART
Block 1
$    pid     sid     mid   eosid    hgid    grav  adpopt    tmid
       1       1     100       0       0       0       0     100
*SECTION_SHELL
       1
$     t1      t2      t3      t4
       1       1       1       1

*MAT_ELASTIC
     100   7e-06  206800    0.29     0.0     0.0       0
*MAT_THERMAL_ISOTROPIC
     100     0.0     0.0     0.0     0.0     0.0
     500   0.045
*NODE
$    nid               x               y               z      tc      rc
       4         1.09345        -1.02682               0       0       0
      54         1.52272        -1.10986               0       0       0
       3         1.31446       -0.722631               0       0       0
      55         1.22437        -1.44503               0       0       0
       9       -0.638669        -1.35724               0       0       0
      56       -0.578672        -1.78117               0       0       0
       8       -0.281072        -1.47343               0       0       0
      16        -1.21353        0.881678               0       0       0
      57         -1.6557        0.934791               0       0       0
      15        -1.39466        0.552187               0       0       0
      22         0.80374         1.26649               0       0       0
      58        0.798173         1.70597               0       0       0
      21        0.463525         1.42658               0       0       0
      59         1.22445         1.44462               0       0       0
      60         1.52331         1.10932               0       0       0
      23         1.09345         1.02682               0       0       0
      61         1.74125        0.689446               0       0       0
      24         1.31446        0.722631               0       0       0
      62         0.35233         1.87413               0       0       0
      20       0.0941858         1.49704               0       0       0
$ ... 114 like lines cut
$
$...>....1....>....2....>....3....>....4....>....5....>....6....>....7....>....8
$    eid     pid      n1      n2      n3      n4      n5      n6      n7      n8
*ELEMENT_SHELL
       1       1       4      54       3       3
       2       1      55      54       4       4
       3       1       9      56       8       8
       4       1      16      57      15      15
       5       1      22      58      21      21
       6       1      59      58      22      22
       7       1      60      59      23      23
       8       1      61      60      24      24
       9       1      62      20      21      21
      10       1      63      19      20      20
      11       1      64      53      26      26
      12       1      65      18      19      19
      13       1      68      17      18      18
      14       1      34      70      33      33
      15       1      71      16      17      17
      16       1      63      62      72      72
      17       1      73      14      15      15
      18       1      74      72      35      35
      19       1      75      13      14      14
      20       1      68      65      74      74
$ ... 195 like lines cut
*LOAD_SEGMENT
         1       1.0       0.0        27        40        40        40       0.0
*DEFINE_CURVE
         1
       0.0  -1.2e+08
*LOAD_SEGMENT
         2       1.0       0.0        40        41        41        41       0.0
*DEFINE_CURVE
         2
       0.0  -1.2e+08
*LOAD_SEGMENT
         3       1.0       0.0        41        28        28        28       0.0
*DEFINE_CURVE
         3
       0.0  -1.2e+08
*LOAD_SEGMENT
         4       1.0       0.0        29        52        52        52       0.0
*DEFINE_CURVE
         4
       0.0  -1.2e+08
*LOAD_SEGMENT
         5       1.0       0.0        52        53        53        53       0.0
*DEFINE_CURVE
         5
       0.0  -1.2e+08
*LOAD_SEGMENT
         6       1.0       0.0        53        26        26        26       0.0
*DEFINE_CURVE
         6
       0.0  -1.2e+08
*BOUNDARY_SPC_SET
         1         0         1         1         1         1         1         1
*SET_NODE_LIST
         1
        26        27        28        29        30        31        32        33
        34        35        36        37        38        39        42        43
        44        45        46        47        48        49        50        51
*END
