*KEYWORD
$
$ File created by cubit version 2021.11
$...>....1....>....2....>....3....>....4....>....5....>....6....>....7....>....8
*TITLE
$ cubit(/Users/sabinin/Documents/Praktikum/task7_int10_factor20.k): 12/21/2021: 19
*PART
Block 1
$    pid     sid     mid   eosid    hgid    grav  adpopt    tmid
       1       1     100       0       0       0       0     100
*SECTION_SHELL
       1
$     t1      t2      t3      t4
       1       1       1       1

*MAT_ELASTIC
     100   7e-06  206800    0.29     0.0     0.0       0
*MAT_THERMAL_ISOTROPIC
     100     0.0     0.0     0.0     0.0     0.0
     500   0.045
*NODE
$    nid               x               y               z      tc      rc
       3        0.463525        -1.42658               0       0       0
      31         1.42365        -1.87826               0       0       0
       2         1.21353       -0.881678               0       0       0
      32          4.3393         1.64856               0       0       0
      30               6        0.969003               0       0       0
      11               6               3               0       0       0
       8       -0.463525         1.42658               0       0       0
      33        -1.42366          1.8778               0       0       0
       7        -1.21353        0.881678               0       0       0
      10         1.21353        0.881678               0       0       0
      34         1.41601         1.87971               0       0       0
       9        0.463525         1.42658               0       0       0
      35     -0.00108659         2.20646               0       0       0
      36         2.30624        0.645294               0       0       0
       1             1.5               0               0       0       0
      37         2.83931         1.61471               0       0       0
      15          3.9079               3               0       0       0
      17        0.718625               3               0       0       0
      16         2.21147               3               0       0       0
      18       -0.719412               3               0       0       0
$ ... 30 like lines cut
$
$...>....1....>....2....>....3....>....4....>....5....>....6....>....7....>....8
$    eid     pid      n1      n2      n3      n4      n5      n6      n7      n8
*ELEMENT_SHELL
       1       1       3      31       2       2
       2       1      32      30      11      11
       3       1       8      33       7       7
       4       1      10      34       9       9
       5       1      35       8       9       9
       6       1      36      10       1       1
       7       1      37      32      15      15
       8       1      17      34      16      16
       9       1      18      35      17      17
      10       1      38       6       7       7
      11       1      33      35      18      18
      12       1      39       5       6       6
      13       1      40      33      19      19
      14       1      41      40      20      20
      15       1      41      20      12      12
      16       1      42       4       5       5
      17       1      43      41      21      21
      18       1      44       3       4       4
      19       1      13      45      22      22
      20       1      46      45      23      23
$ ... 50 like lines cut
*LOAD_SEGMENT
         1       1.0       0.0        12        21        21        21       0.0
*DEFINE_CURVE
         1
       0.0  -1.2e+08
*LOAD_SEGMENT
         2       1.0       0.0        21        22        22        22       0.0
*DEFINE_CURVE
         2
       0.0  -1.2e+08
*LOAD_SEGMENT
         3       1.0       0.0        22        13        13        13       0.0
*DEFINE_CURVE
         3
       0.0  -1.2e+08
*LOAD_SEGMENT
         4       1.0       0.0        14        29        29        29       0.0
*DEFINE_CURVE
         4
       0.0  -1.2e+08
*LOAD_SEGMENT
         5       1.0       0.0        29        30        30        30       0.0
*DEFINE_CURVE
         5
       0.0  -1.2e+08
*LOAD_SEGMENT
         6       1.0       0.0        30        11        11        11       0.0
*DEFINE_CURVE
         6
       0.0  -1.2e+08
*BOUNDARY_SPC_SET
         1         0         1         1         1         1         1         1
*SET_NODE_LIST
         1
        11        12        13        14        15        16        17        18
        19        20        23        24        25        26        27        28
*END
