*KEYWORD
$
$ File created by cubit version 17.1
$...>....1....>....2....>....3....>....4....>....5....>....6....>....7....>....8
*TITLE
$ cubit(D:/Fidesys/test rect/111.k): 03/31/2021: 20:41:18
*PART
Block 1
$    pid     sid     mid   eosid    hgid    grav  adpopt    tmid
       1       1     100       0       0       0       0     100
*SECTION_SHELL
       1
$     t1      t2      t3      t4
       1       1       1       1

*MAT_ELASTIC
     100   7e-06  206800    0.29     0.0     0.0       0
*MAT_THERMAL_ISOTROPIC
     100     0.0     0.0     0.0     0.0     0.0
     500   0.045
*NODE
$    nid               x               y               z      tc      rc
     128               2               5               0       0       0
     162         2.56465         4.10576               0       0       0
     127               3               5               0       0       0
     130               0               5               0       0       0
     163             0.5         4.17653               0       0       0
     129               1               5               0       0       0
     132              -2               5               0       0       0
     164            -1.5         4.17653               0       0       0
     131              -1               5               0       0       0
     165        -2.56465         4.10576               0       0       0
     166        -3.62383         4.13213               0       0       0
     133              -3               5               0       0       0
     123              -5               5               0       0       0
     135              -5               4               0       0       0
     134              -4               5               0       0       0
     167            -0.5         4.17653               0       0       0
     168             1.5         4.17653               0       0       0
     170         3.62382         4.13215               0       0       0
     126               4               5               0       0       0
     171        -4.16814          2.5042               0       0       0
$ ... 118 like lines cut
$
$...>....1....>....2....>....3....>....4....>....5....>....6....>....7....>....8
$    eid     pid      n1      n2      n3      n4      n5      n6      n7      n8
*ELEMENT_SHELL
       1       1     128     162     127     127
       2       1     130     163     129     129
       3       1     132     164     131     131
       4       1     165     164     132     132
       5       1     166     165     133     133
       6       1     123     135     134     134
       7       1     167     130     131     131
       8       1     168     128     129     129
       9       1     166     134     135     135
      10       1     170     126     127     127
      11       1     171     169     136     136
      12       1     161     122     126     126
      13       1     173     172     138     138
      14       1     141     174     140     140
      15       1     175     174     141     141
      16       1     176     175     142     142
      17       1     124     144     143     143
      18       1     176     143     144     144
      19       1     178     139     140     140
      20       1     180     179     146     146
$ ... 214 like lines cut
*BOUNDARY_SPC_SET
         1         0         1         1         0         0         0         0
*SET_NODE_LIST
         1
       122       126       127       128       129       130       131       132
       133       134       123
*LOAD_NODE_SET
         2         2         1       1.0
*DEFINE_CURVE
         1
       0.0        -1
*SET_NODE_LIST
         2
       124       144       145       146       147       148       149       150
       151       152       125
*END
