*KEYWORD
$
$ File created by cubit version 17.1
$...>....1....>....2....>....3....>....4....>....5....>....6....>....7....>....8
*TITLE
$ cubit(D:/Fidesys/test_bulk/111.k): 03/28/2021: 17:14:44
*PART
Block 1
$    pid     sid     mid   eosid    hgid    grav  adpopt    tmid
       1       1     100       0       0       0       0     100
*SECTION_SOLID
       1
*MAT_ELASTIC
     100   7e-06  206800    0.29     0.0     0.0       0
*MAT_THERMAL_ISOTROPIC
     100     0.0     0.0     0.0     0.0     0.0
     500   0.045
*NODE
$    nid               x               y               z      tc      rc
     929       0.0124624       0.0690036      -0.0618164       0       0
     930       -0.363716        0.104457        -0.70148       0       0
     931       -0.315352       -0.460151       -0.296343       0       0
     932       -0.421981        0.228817       -0.214041       0       0
     933        -1.00592        0.467374       -0.858542       0       0
     934       -0.270205        0.623389       -0.557739       0       0
     936       -0.344206        0.322222        0.367409       0       0
     935       0.0449654         0.59589      -0.0542243       0       0
     937       -0.640527         1.00399       -0.195382       0       0
     938        -2.33912      -0.0268519       -0.656007       0       0
     939        -2.85194        0.189218        -1.04973       0       0
     940        -2.69399        0.372773       -0.498225       0       0
     941        -2.66484        0.607766       -0.962825       0       0
     942        -2.18688        0.492456       -0.848658       0       0
     943        -2.87352        0.866808       -0.653004       0       0
     944        -2.33923       0.0535687         -1.2632       0       0
     945        -2.69501        0.768357        -1.50112       0       0
     946        -2.18319        0.516507        -1.38244       0       0
     947        -2.51488        0.995513        -1.11284       0       0
     948         6.96431       -0.342292       -0.188725       0       0
$ ... 2791 like lines cut
$
$...>....1....>....2....>....3....>....4....>....5....>....6....>....7....>....8
$    eid     pid      n1      n2      n3      n4      n5      n6      n7      n8
*ELEMENT_SOLID
       1       1     929     930     931     932     932     932     932     932
       2       1     930     933     932     934     934     934     934     934
       3       1     932     936     935     937     937     937     937     937
       4       1     929     934     932     935     935     935     935     935
       5       1     938     939     940     941     941     941     941     941
       6       1     940     942     941     943     943     943     943     943
       7       1     939     941     944     945     945     945     945     945
       8       1     938     939     941     944     944     944     944     944
       9       1     941     944     945     946     946     946     946     946
      10       1     941     942     946     947     947     947     947     947
      11       1     948     949     950     951     951     951     951     951
      12       1     948     952     951     953     953     953     953     953
      13       1     950     954     951     955     955     955     955     955
      14       1     949     955     951     956     956     956     956     956
      15       1     951     956     955     957     957     957     957     957
      16       1     951     957     958     959     959     959     959     959
      17       1     950     951     954     960     960     960     960     960
      18       1     948     951     950     960     960     960     960     960
      19       1     961     962     963     964     964     964     964     964
      20       1     964     966     965     967     967     967     967     967
$ ... 13928 like lines cut
*BOUNDARY_SPC_SET
         1         0         1         1         1         0         0         0
*SET_NODE_LIST
         1
       151       152       153       154       155       156       114       115
       116       117       118       119       145       146       147       148
       149       150        58        59        60        61        62        63
         5         8         7         6       716       717       718       719
       720       721       722       723       724       725       726       727
       728       729       730       731       732       733       734       735
       736       737       738       739       740       741       742       743
       744       745       746       747       748       749       750       751
       752       753       754       755
*LOAD_NODE_SET
         2         2         1       1.0
*DEFINE_CURVE
         1
       0.0        -1
*SET_NODE_LIST
         2
         1         9        10        11        12        13        14         2
*END
