*KEYWORD
$
$ File created by cubit version 17.1
$...>....1....>....2....>....3....>....4....>....5....>....6....>....7....>....8
*TITLE
$ cubit(D:/Fidesys/bulk_middle/bulk_middle.k): 04/22/2021: 14:03:35
*PART
Block 1
$    pid     sid     mid   eosid    hgid    grav  adpopt    tmid
       1       1     100       0       0       0       0     100
*SECTION_SOLID
       1
*MAT_ELASTIC
     100   7e-06  206800    0.29     0.0     0.0       0
*MAT_THERMAL_ISOTROPIC
     100     0.0     0.0     0.0     0.0     0.0
     500   0.045
*NODE
$    nid               x               y               z      tc      rc
     909        -4.13872       -0.323004       -0.146258       0       0
     910        -4.26163       -0.125338       -0.197603       0       0
     911         -4.2131       -0.214992       0.0973768       0       0
     912        -4.12621      0.00755234     -0.00228853       0       0
     913        -3.98212       -0.202623        0.122064       0       0
     914        -4.32681      -0.0788751        0.291308       0       0
     916        -3.98862        0.157306        0.109162       0       0
     915        -4.11613        0.325122        -0.17238       0       0
     917        -4.27949        0.251177      0.00870079       0       0
     918        -3.78234      -0.0553908      -0.0309834       0       0
     919        -4.34369        0.130757       -0.293059       0       0
     920        -4.46295      -0.0607937     -0.00650435       0       0
     921        -3.08761       -0.103297       -0.339188       0       0
     922        -3.11364      -0.0345031       0.0237336       0       0
     923        -2.95731       -0.225721       -0.138996       0       0
     924        -2.88388       0.0922496       -0.139101       0       0
     926        -3.09266        0.261518       0.0951358       0       0
     925        -2.93336        0.421358       -0.299598       0       0
     927        -3.22512       0.0860857       -0.206474       0       0
     929        -2.89323        0.106676       -0.412157       0       0
$ ... 2196 like lines cut
$
$...>....1....>....2....>....3....>....4....>....5....>....6....>....7....>....8
$    eid     pid      n1      n2      n3      n4      n5      n6      n7      n8
*ELEMENT_SOLID
       1       1     909     910     911     912     912     912     912     912
       2       1     911     913     912     914     914     914     914     914
       3       1     912     916     915     917     917     917     917     917
       4       1     912     916     913     918     918     918     918     918
       5       1     910     912     919     920     920     920     920     920
       6       1     921     922     923     924     924     924     924     924
       7       1     924     926     925     927     927     927     927     927
       8       1     924     929     928     930     930     930     930     930
       9       1     923     930     924     931     931     931     931     931
      10       1     923     930     931     932     932     932     932     932
      11       1     924     929     925     933     933     933     933     933
      12       1     924     928     929     933     933     933     933     933
      13       1     934     935     936     937     937     937     937     937
      14       1     935     936     937     938     938     938     938     938
      15       1     935     936     939     940     940     940     940     940
      16       1     931     935     940     941     941     941     941     941
      17       1     940     943     942     944     944     944     944     944
      18       1     931     940     935     945     945     945     945     945
      19       1     936     940     943     946     946     946     946     946
      20       1     940     945     942     946     946     946     946     946
$ ... 10391 like lines cut
*BOUNDARY_SPC_SET
         1         0         1         1         1         0         0         0
*SET_NODE_LIST
         1
       160       161       162       163       164       121       122       123
       124       125       155       156       157       158       159        58
        59        60        61        62         5         8         7         6
       709       710       711       712       713       714       715       716
       717       718       719       720       721       722       723       724
       725       726       727       728       729       730       731       732
       733       734       735       736
*LOAD_NODE_SET
         2         1         1       1.0
*DEFINE_CURVE
         1
       0.0        10
*SET_NODE_LIST
         2
         9        10        11        12        13        14        15        16
        17        18        19        20        21        22        23        24
        25        26        27        28         1         2         3         4
       165       166       167       168       169       170       171       172
       173       174       175       176       177       178       179       180
       181       182       183       184       185       186       187       188
       189       190       191       192
*END
