*KEYWORD
$
$ File created by cubit version 17.1
$...>....1....>....2....>....3....>....4....>....5....>....6....>....7....>....8
*TITLE
$ cubit(D:/Fidesys/cilinder_middle/cilinder_middle.k): 04/22/2021: 14:17:37
*PART
Block 1
$    pid     sid     mid   eosid    hgid    grav  adpopt    tmid
       1       1     100       0       0       0       0     100
*SECTION_SOLID
       1
*MAT_ELASTIC
     100   7e-06  206800    0.29     0.0     0.0       0
*MAT_THERMAL_ISOTROPIC
     100     0.0     0.0     0.0     0.0     0.0
     500   0.045
*NODE
$    nid               x               y               z      tc      rc
    2618        0.694791        0.130463         2.67515       0       0
    2619        0.225712         0.71149         2.70322       0       0
    2620        0.347303        0.209756          2.0606       0       0
    2621        0.263615      -0.0874338         2.60622       0       0
    2622       -0.573873        0.370494         2.38629       0       0
    2623       -0.244612       0.0245577         2.97037       0       0
    2624       -0.594811       -0.425003         2.47414       0       0
    2625      -0.0935819       -0.758035          2.9785       0       0
    2626       -0.200494       -0.185798         1.97956       0       0
    2627        0.104183       -0.747625         2.35055       0       0
    2628        0.604534       -0.413019         2.31248       0       0
    2630         1.08379      -0.0844404         2.15003       0       0
    2629          1.1209       -0.736636         1.77837       0       0
    2631         0.72664       -0.011606         1.75606       0       0
    2632        0.968191        -0.35486         3.17974       0       0
    2633        0.266057       -0.112779         3.23609       0       0
    2634         1.50654       -0.263447         2.48711       0       0
    2635         1.24273       -0.723289         2.58531       0       0
    2636        0.606529       -0.864414         2.43427       0       0
    2637        0.207739        0.643877         3.30027       0       0
$ ... 720 like lines cut
$
$...>....1....>....2....>....3....>....4....>....5....>....6....>....7....>....8
$    eid     pid      n1      n2      n3      n4      n5      n6      n7      n8
*ELEMENT_SOLID
       1       1    2618    2619    2620    2621    2621    2621    2621    2621
       2       1    2619    2622    2621    2623    2623    2623    2623    2623
       3       1    2621    2623    2622    2624    2624    2624    2624    2624
       4       1    2621    2623    2624    2625    2625    2625    2625    2625
       5       1    2621    2624    2622    2626    2626    2626    2626    2626
       6       1    2621    2627    2626    2628    2628    2628    2628    2628
       7       1    2628    2630    2629    2631    2631    2631    2631    2631
       8       1    2620    2621    2626    2628    2628    2628    2628    2628
       9       1    2618    2621    2632    2633    2633    2633    2633    2633
      10       1    2618    2630    2634    2635    2635    2635    2635    2635
      11       1    2618    2628    2630    2635    2635    2635    2635    2635
      12       1    2628    2629    2630    2635    2635    2635    2635    2635
      13       1    2621    2628    2632    2636    2636    2636    2636    2636
      14       1    2628    2635    2632    2636    2636    2636    2636    2636
      15       1    2621    2623    2633    2637    2637    2637    2637    2637
      16       1    2619    2623    2621    2637    2637    2637    2637    2637
      17       1    2638    2639    2640    2641    2641    2641    2641    2641
      18       1    2626    2627    2641    2642    2642    2642    2642    2642
      19       1    2638    2641    2643    2644    2644    2644    2644    2644
      20       1    2641    2644    2645    2646    2646    2646    2646    2646
$ ... 3281 like lines cut
*BOUNDARY_SPC_SET
         1         0         1         1         1         0         0         0
*SET_NODE_LIST
         1
      2294      2295      2296      2297      2298      2299      2300      2301
      2277      2302      2303      2304      2305      2306      2307      2308
      2309      2276      2591      2592      2593      2594      2595      2596
      2597      2598      2599      2600      2601      2602      2603      2604
      2605      2606      2607      2608      2609      2610      2611      2612
      2613      2614      2615      2616      2617
*LOAD_NODE_SET
         2         3         1       1.0
*DEFINE_CURVE
         1
       0.0        10
*SET_NODE_LIST
         2
      2278      2279      2280      2281      2282      2283      2284      2285
      2275      2286      2287      2288      2289      2290      2291      2292
      2293      2274      2323      2324      2325      2326      2327      2328
      2329      2330      2331      2332      2333      2334      2335      2336
      2337      2338      2339      2340      2341      2342      2343      2344
      2345      2346      2347      2348      2349
*END
