*KEYWORD
$
$ File created by cubit version 17.1
$...>....1....>....2....>....3....>....4....>....5....>....6....>....7....>....8
*TITLE
$ cubit(D:/Fidesys/cilinder/cilinder.k): 04/14/2021: 00:49:05
*PART
Block 1
$    pid     sid     mid   eosid    hgid    grav  adpopt    tmid
       1       1     100       0       0       0       0     100
*SECTION_SOLID
       1
*MAT_ELASTIC
     100   7e-06  206800    0.29     0.0     0.0       0
*MAT_THERMAL_ISOTROPIC
     100     0.0     0.0     0.0     0.0     0.0
     500   0.045
*NODE
$    nid               x               y               z      tc      rc
    3031         0.19244       -0.219852        -1.90574       0       0
    3032        0.082384       -0.241659         -1.7104       0       0
    3033        0.295622        0.210525        -1.89764       0       0
    3034      -0.0334597       0.0619572        -1.92454       0       0
    3036      -0.0642862        0.257669        -1.57421       0       0
    3035       0.0309377        0.584025        -1.88848       0       0
    3037       -0.256252        0.339794        -1.94315       0       0
    3038        0.187674        0.496311        -2.33949       0       0
    3039       -0.139725        0.194124        -2.32482       0       0
    3040        0.237553      -0.0237818        -2.43247       0       0
    3041      -0.0702288       -0.387629        -2.37478       0       0
    3042        0.532566        0.778634        0.273287       0       0
    3043          0.1651        0.625729      -0.0152301       0       0
    3044         0.57638        0.379989        0.277311       0       0
    3045        0.104212        0.469122        0.264894       0       0
    3046         1.04673         1.23032      -0.0482609       0       0
    3047        0.977671         1.36353        0.351622       0       0
    3048        0.776981          1.3655       -0.184105       0       0
    3049        0.617746         1.07372       0.0608909       0       0
    3051       0.0703848        0.232658        0.605736       0       0
$ ... 2253 like lines cut
$
$...>....1....>....2....>....3....>....4....>....5....>....6....>....7....>....8
$    eid     pid      n1      n2      n3      n4      n5      n6      n7      n8
*ELEMENT_SOLID
       1       1    3031    3032    3033    3034    3034    3034    3034    3034
       2       1    3034    3036    3035    3037    3037    3037    3037    3037
       3       1    3033    3035    3038    3039    3039    3039    3039    3039
       4       1    3033    3034    3035    3039    3039    3039    3039    3039
       5       1    3031    3034    3040    3041    3041    3041    3041    3041
       6       1    3031    3034    3033    3040    3040    3040    3040    3040
       7       1    3042    3043    3044    3045    3045    3045    3045    3045
       8       1    3046    3047    3048    3049    3049    3049    3049    3049
       9       1    3045    3051    3050    3052    3052    3052    3052    3052
      10       1    3045    3053    3052    3054    3054    3054    3054    3054
      11       1    3044    3045    3055    3056    3056    3056    3056    3056
      12       1    3057    3058    3059    3060    3060    3060    3060    3060
      13       1    3057    3061    3060    3062    3062    3062    3062    3062
      14       1    2912    3063    3064    3065    3065    3065    3065    3065
      15       1    3059    3060    3066    3067    3067    3067    3067    3067
      16       1    3060    3069    3068    3070    3070    3070    3070    3070
      17       1    3067    3071    3072    3073    3073    3073    3073    3073
      18       1    3073    3075    3074    3076    3076    3076    3076    3076
      19       1    3073    3076    3074    3077    3077    3077    3077    3077
      20       1    3073    3079    3078    3080    3080    3080    3080    3080
$ ... 11215 like lines cut
*BOUNDARY_SPC_SET
         1         0         1         1         1         0         0         0
*SET_NODE_LIST
         1
      2302      2303      2304      2305      2306      2307      2308      2309
      2310      2311      2312      2313      2277      2314      2315      2316
      2317      2318      2319      2320      2321      2322      2323      2324
      2325      2276      2975      2976      2977      2978      2979      2980
      2981      2982      2983      2984      2985      2986      2987      2988
      2989      2990      2991      2992      2993      2994      2995      2996
      2997      2998      2999      3000      3001      3002      3003      3004
      3005      3006      3007      3008      3009      3010      3011      3012
      3013      3014      3015      3016      3017      3018      3019      3020
      3021      3022      3023      3024      3025      3026      3027      3028
      3029      3030
*LOAD_NODE_SET
         2         3         1       1.0
*DEFINE_CURVE
         1
       0.0        10
*SET_NODE_LIST
         2
      2278      2279      2280      2281      2282      2283      2284      2285
      2286      2287      2288      2289      2275      2290      2291      2292
      2293      2294      2295      2296      2297      2298      2299      2300
      2301      2274      2346      2347      2348      2349      2350      2351
      2352      2353      2354      2355      2356      2357      2358      2359
      2360      2361      2362      2363      2364      2365      2366      2367
      2368      2369      2370      2371      2372      2373      2374      2375
      2376      2377      2378      2379      2380      2381      2382      2383
      2384      2385      2386      2387      2388      2389      2390      2391
      2392      2393      2394      2395      2396      2397      2398      2399
      2400      2401
*END
