*KEYWORD
$
$ File created by cubit version 17.1
$...>....1....>....2....>....3....>....4....>....5....>....6....>....7....>....8
*TITLE
$ cubit(D:/Fidesys/cube_test/cube_test.k): 04/10/2021: 17:33:47
*PART
Block 1
$    pid     sid     mid   eosid    hgid    grav  adpopt    tmid
       1       1     100       0       0       0       0     100
*SECTION_SOLID
       1
*MAT_ELASTIC
     100   7e-06  206800    0.29     0.0     0.0       0
*MAT_THERMAL_ISOTROPIC
     100     0.0     0.0     0.0     0.0     0.0
     500   0.045
*NODE
$    nid               x               y               z      tc      rc
    2151         0.46426         0.46426               5       0       0
    2156       -0.460498       -0.545328        0.248223       0       0
    2157        -1.90674         2.03382         1.62771       0       0
    2158         1.62307         1.60767         1.59153       0       0
    2155         0.46426               5        -0.46426       0       0
    2159           1.712         1.63471        -1.86653       0       0
    2141               5    -8.88178e-16               5       0       0
    2150               5        -0.46426        -0.46426       0       0
    2160          1.9779        -2.07924         2.07763       0       0
    2133               5               5               5       0       0
    2140               5               5     8.88178e-16       0       0
    2154              -5         0.46426        -0.46426       0       0
    2161        -2.24225        -2.24968        -2.18786       0       0
    2162        -1.64404         1.75412        -1.77371       0       0
    2163         2.06767        -2.04117        -2.52593       0       0
    2147    -8.88178e-16               5              -5       0       0
    2132               5               5              -5       0       0
    2139               5     8.88178e-16              -5       0       0
    2152         0.46426        -0.46426              -5       0       0
    2144    -8.88178e-16              -5               5       0       0
$ ... 14 like lines cut
$
$...>....1....>....2....>....3....>....4....>....5....>....6....>....7....>....8
$    eid     pid      n1      n2      n3      n4      n5      n6      n7      n8
*ELEMENT_SOLID
       1       1    2151    2156    2157    2158    2158    2158    2158    2158
       2       1    2155    2158    2156    2159    2159    2159    2159    2159
       3       1    2141    2158    2150    2160    2160    2160    2160    2160
       4       1    2133    2140    2141    2158    2158    2158    2158    2158
       5       1    2150    2156    2158    2159    2159    2159    2159    2159
       6       1    2151    2156    2158    2160    2160    2160    2160    2160
       7       1    2154    2156    2161    2162    2162    2162    2162    2162
       8       1    2150    2160    2156    2163    2163    2163    2163    2163
       9       1    2147    2159    2155    2162    2162    2162    2162    2162
      10       1    2132    2147    2139    2159    2159    2159    2159    2159
      11       1    2132    2140    2155    2159    2159    2159    2159    2159
      12       1    2152    2139    2159    2163    2163    2163    2163    2163
      13       1    2139    2150    2140    2159    2159    2159    2159    2159
      14       1    2151    2144    2156    2160    2160    2160    2160    2160
      15       1    2145    2161    2153    2163    2163    2163    2163    2163
      16       1    2139    2150    2159    2163    2163    2163    2163    2163
      17       1    2152    2131    2139    2163    2163    2163    2163    2163
      18       1    2145    2131    2152    2163    2163    2163    2163    2163
      19       1    2153    2160    2138    2163    2163    2163    2163    2163
      20       1    2152    2156    2161    2163    2163    2163    2163    2163
$ ... 69 like lines cut
*BOUNDARY_SPC_SET
         1         0         1         1         1         0         0         0
*SET_NODE_LIST
         1
      2140      2147      2149      2142      2133      2132      2137      2134
      2155
*LOAD_NODE_SET
         2         2         1       1.0
*DEFINE_CURVE
         1
       0.0       -10
*SET_NODE_LIST
         2
      2148      2145      2138      2144      2135      2136      2131      2130
      2153
*END
