*KEYWORD
$
$ File created by cubit version 2021.11
$...>....1....>....2....>....3....>....4....>....5....>....6....>....7....>....8
*TITLE
$ cubit(okin/Documents/CAE-Fidesys-5.0/3dtasks/small/small_test.k): 06/18/2022: 23
*PART
Block 1
$    pid     sid     mid   eosid    hgid    grav  adpopt    tmid
       1       1     100       0       0       0       0     100
*SECTION_SOLID
       1
*MAT_ELASTIC
     100   7e-06  206800    0.29     0.0     0.0       0
*MAT_THERMAL_ISOTROPIC
     100     0.0     0.0     0.0     0.0     0.0
     500   0.045
*NODE
$    nid               x               y               z      tc      rc
    4229     -6.2873e-08              -1               1       0       0
    4230      6.2873e-08              -1              -1       0       0
    4232        -1.00561      0.00515239      -0.0042818       0       0
    4233         1.00493      0.00537541      0.00581707       0       0
    4228      6.2873e-08               1               1       0       0
    4231     -6.2873e-08               1              -1       0       0
    4224               2              -1               1       0       0
    4225               2              -1              -1       0       0
    4226               2               1              -1       0       0
    4222              -2              -1              -1       0       0
    4223              -2              -1               1       0       0
    4221              -2               1              -1       0       0
    4220              -2               1               1       0       0
    4227               2               1               1       0       0
$
$...>....1....>....2....>....3....>....4....>....5....>....6....>....7....>....8
$    eid     pid      n1      n2      n3      n4      n5      n6      n7      n8
*ELEMENT_SOLID
       1       1    4229    4230    4232    4233    4233    4233    4233    4233
       2       1    4228    4232    4231    4233    4233    4233    4233    4233
       3       1    4224    4225    4230    4233    4233    4233    4233    4233
       4       1    4224    4230    4229    4233    4233    4233    4233    4233
       5       1    4226    4231    4230    4233    4233    4233    4233    4233
       6       1    4226    4230    4225    4233    4233    4233    4233    4233
       7       1    4230    4231    4222    4232    4232    4232    4232    4232
       8       1    4223    4222    4221    4232    4232    4232    4232    4232
       9       1    4230    4231    4232    4233    4233    4233    4233    4233
      10       1    4220    4223    4221    4232    4232    4232    4232    4232
      11       1    4228    4220    4231    4232    4232    4232    4232    4232
      12       1    4228    4224    4229    4233    4233    4233    4233    4233
      13       1    4228    4226    4227    4233    4233    4233    4233    4233
      14       1    4220    4221    4231    4232    4232    4232    4232    4232
      15       1    4228    4231    4226    4233    4233    4233    4233    4233
      16       1    4228    4229    4220    4232    4232    4232    4232    4232
      17       1    4228    4229    4232    4233    4233    4233    4233    4233
      18       1    4227    4226    4225    4233    4233    4233    4233    4233
      19       1    4229    4223    4220    4232    4232    4232    4232    4232
      20       1    4229    4230    4222    4232    4232    4232    4232    4232
$ ... 4 like lines cut
*LOAD_SEGMENT
         1       1.0       0.0      4224      4225      4227      4227       0.0
*DEFINE_CURVE
         1
       0.0      1000
*LOAD_SEGMENT
         2       1.0       0.0      4227      4225      4226      4226       0.0
*DEFINE_CURVE
         2
       0.0      1000
*BOUNDARY_SPC_SET
         1         0         1         1         1         0         0         0
*SET_NODE_LIST
         1
      4220      4221      4222      4223
*END
