*KEYWORD
$
$ File created by cubit version 17.1
$...>....1....>....2....>....3....>....4....>....5....>....6....>....7....>....8
*TITLE
$ cubit(D:/Fidesys/sphere_small/sphere_small.k): 04/14/2021: 00:14:14
*PART
Block 1
$    pid     sid     mid   eosid    hgid    grav  adpopt    tmid
       1       1     100       0       0       0       0     100
*SECTION_SOLID
       1
*MAT_ELASTIC
     100   7e-06  206800    0.29     0.0     0.0       0
*MAT_THERMAL_ISOTROPIC
     100     0.0     0.0     0.0     0.0     0.0
     500   0.045
*NODE
$    nid               x               y               z      tc      rc
    2415        -5.26909         1.42031        -3.47691       0       0
    2416        -4.94943         3.09234         2.19385       0       0
    2417        -4.98715         -2.6931         3.06932       0       0
    2418       -0.695516          0.2154       -0.219876       0       0
    2420        -3.24304         3.86458        -3.05564       0       0
    2419        0.861744         2.70754        -5.60067       0       0
    2421        -1.37655      -0.0781337        -6.25249       0       0
    2422        -1.83716        -5.25599         1.69216       0       0
    2423        -2.09069       -0.298162         3.21314       0       0
    2378        -5.55445         8.12499        -1.76992       0       0
    2377        -4.87241         8.05706         3.36799       0       0
    2367        -8.92745         4.50562     1.40334e-07       0       0
    2424        -2.35242         5.24916         1.16334       0       0
    2425        -4.78913        -3.73704          -1.674       0       0
    2426         -1.8623        -4.85434        -3.21323       0       0
    2427         1.43612        -1.73818        -5.37942       0       0
    2363        -7.82775    -9.58623e-16         6.22305       0       0
    2364         -4.3832    -5.36788e-16         8.98819       0       0
    2429         4.56294        -1.25248         4.31484       0       0
    2428         4.16948         2.39014         3.90908       0       0
$ ... 62 like lines cut
$
$...>....1....>....2....>....3....>....4....>....5....>....6....>....7....>....8
$    eid     pid      n1      n2      n3      n4      n5      n6      n7      n8
*ELEMENT_SOLID
       1       1    2415    2416    2417    2418    2418    2418    2418    2418
       2       1    2418    2420    2419    2421    2421    2421    2421    2421
       3       1    2417    2422    2418    2423    2423    2423    2423    2423
       4       1    2378    2377    2367    2424    2424    2424    2424    2424
       5       1    2415    2418    2425    2426    2426    2426    2426    2426
       6       1    2418    2421    2419    2427    2427    2427    2427    2427
       7       1    2363    2417    2416    2423    2423    2423    2423    2423
       8       1    2364    2363    2416    2423    2423    2423    2423    2423
       9       1    2423    2429    2428    2430    2430    2430    2430    2430
      10       1    2418    2431    2428    2432    2432    2432    2432    2432
      11       1    2418    2423    2428    2433    2433    2433    2433    2433
      12       1    2416    2423    2424    2434    2434    2434    2434    2434
      13       1    2366    2417    2375    2425    2425    2425    2425    2425
      14       1    2369    2415    2425    2426    2426    2426    2426    2426
      15       1    2362    2415    2417    2425    2425    2425    2425    2425
      16       1    2369    2425    2376    2426    2426    2426    2426    2426
      17       1    2361    2370    2415    2425    2425    2425    2425    2425
      18       1    2376    2375    2422    2425    2425    2425    2425    2425
      19       1    2406    2412    2414    2435    2435    2435    2435    2435
      20       1    2406    2429    2412    2435    2435    2435    2435    2435
$ ... 251 like lines cut
*LOAD_NODE_SET
         2         2         1       1.0
*DEFINE_CURVE
         1
       0.0       100
*SET_NODE_LIST
         2
      2383      2389      2384      2378
*END
