*KEYWORD
$
$ File created by cubit version 17.1
$...>....1....>....2....>....3....>....4....>....5....>....6....>....7....>....8
*TITLE
$ cubit(D:/Fidesys/bulk_test/bulk_test.k): 04/10/2021: 17:48:01
*PART
Block 1
$    pid     sid     mid   eosid    hgid    grav  adpopt    tmid
       1       1     100       0       0       0       0     100
*SECTION_SOLID
       1
*MAT_ELASTIC
     100   7e-06  206800    0.29     0.0     0.0       0
*MAT_THERMAL_ISOTROPIC
     100     0.0     0.0     0.0     0.0     0.0
     500   0.045
*NODE
$    nid               x               y               z      tc      rc
    3750         1.00031              -1               1       0       0
    3753         1.00031              -1              -1       0       0
    3745         1.00031               1               1       0       0
    3760         2.00086     0.000154804     -0.00108477       0       0
    3744         3.00093               1               1       0       0
    3758         1.00031               1              -1       0       0
    3759         3.00093               1              -1       0       0
    3761         4.02222       0.0208835      -0.0209259       0       0
    3752         3.00093              -1              -1       0       0
    3736               5              -1               1       0       0
    3739               5               1               1       0       0
    3737               5              -1              -1       0       0
    3751         3.00093              -1               1       0       0
    3748        -3.00093              -1               1       0       0
    3756        -3.00093               1              -1       0       0
    3755        -3.00093              -1              -1       0       0
    3762        -4.02137       0.0204397       0.0208835       0       0
    3741              -5              -1               1       0       0
    3742              -5              -1              -1       0       0
    3743              -5               1              -1       0       0
$ ... 7 like lines cut
$
$...>....1....>....2....>....3....>....4....>....5....>....6....>....7....>....8
$    eid     pid      n1      n2      n3      n4      n5      n6      n7      n8
*ELEMENT_SOLID
       1       1    3750    3753    3745    3760    3760    3760    3760    3760
       2       1    3744    3745    3758    3760    3760    3760    3760    3760
       3       1    3744    3760    3759    3761    3761    3761    3761    3761
       4       1    3752    3758    3753    3760    3760    3760    3760    3760
       5       1    3759    3760    3752    3761    3761    3761    3761    3761
       6       1    3736    3739    3737    3761    3761    3761    3761    3761
       7       1    3751    3736    3737    3761    3761    3761    3761    3761
       8       1    3739    3744    3759    3761    3761    3761    3761    3761
       9       1    3751    3760    3744    3761    3761    3761    3761    3761
      10       1    3751    3737    3752    3761    3761    3761    3761    3761
      11       1    3751    3752    3760    3761    3761    3761    3761    3761
      12       1    3748    3756    3755    3762    3762    3762    3762    3762
      13       1    3741    3742    3743    3762    3762    3762    3762    3762
      14       1    3755    3743    3742    3762    3762    3762    3762    3762
      15       1    3755    3756    3743    3762    3762    3762    3762    3762
      16       1    3748    3755    3741    3762    3762    3762    3762    3762
      17       1    3738    3759    3737    3761    3761    3761    3761    3761
      18       1    3739    3738    3737    3761    3761    3761    3761    3761
      19       1    3739    3759    3738    3761    3761    3761    3761    3761
      20       1    3747    3748    3741    3762    3762    3762    3762    3762
$ ... 27 like lines cut
*BOUNDARY_SPC_SET
         1         0         1         1         1         0         0         0
*SET_NODE_LIST
         1
      3740      3743      3742      3741
*LOAD_NODE_SET
         2         1         1       1.0
*DEFINE_CURVE
         1
       0.0         1
*SET_NODE_LIST
         2
      3736      3737      3738      3739
*END
